     149
 i =        2, E =     -4043.8490346126
 Cd        14.8817248696       16.0474414674       13.4951459085
 Cd        14.9827073172       13.3700599663       16.8004331306
 Cd        12.5962787735       16.8294031475       16.9148344758
 Cd        18.3013695245       18.3122870325       12.6407228392
 Cd        18.3961622639       15.5177523353       15.8010057522
 Cd        15.9701955376       19.2490479786       16.0526187205
 Cd        18.3130014590       12.8195929646       19.1290472442
 Cd        15.9807725020       16.3725646643       19.4489895765
 Cd        13.8029826152       20.0134066827       19.6106751838
 Cd        21.8186305278       17.8702415516       15.0681155203
 Cd        19.4962835656       21.4793337882       15.3183231604
 Cd        21.7905240479       15.1624102329       18.2861844404
 Cd        19.6234301058       18.7754804412       18.5589658328
 Cd        17.2235733943       22.2638534196       18.7538827987
 Cd        19.5114965425       15.9869411146       21.8096396460
 Cd        17.2668614459       19.4156474626       21.9144297855
 Se        16.3693846205       14.1730540363       14.6671166915
 Se        13.8393695561       18.0622397467       14.8976711824
 Se        13.8371291749       15.0748387640       18.4918490754
 Se        19.9230329232       16.5174590160       13.7788530856
 Se        17.4158214060       20.4022341026       14.0432323640
 Se        19.8947574141       13.6806407150       17.1470608056
 Se        17.5034147500       17.4767577657       17.4611145186
 Se        15.0416508989       21.2563254410       17.5978345555
 Se        17.4201363365       14.5803455397       20.9273227355
 Se        15.0206234206       18.2103257563       21.1496734070
 Se        21.2048348357       19.9170086895       16.6559910922
 Se        21.1790118731       17.0835755584       20.0263529361
 Se        18.8443086366       20.7347943933       20.2164789108
 Cd        14.1071499131       12.9837638584       10.9142108575
 Cd        11.6719903012       16.9724176814       11.2563201989
 Cd        13.6536690193       10.4589033719       13.8474963438
 Cd        11.4313171123       13.4388831712       14.1742965644
 Cd         9.5292681141       17.6330137630       14.5789029644
 Cd        11.6351378737       11.2715507318       18.0782019836
 Cd         9.5206528117       14.6744914744       18.0911515099
 Cd        17.2174308425       15.0257544865        9.9592986972
 Cd        14.7516880814       18.9511091999       10.2438693466
 Cd        17.2822337513       12.1078766737       12.9148954668
 Cd        12.3257542259       20.0087949771       13.4569470970
 Cd        17.0077816607        9.6913939462       16.1438548690
 Cd        10.3286118266       20.5550412947       17.0239065216
 Cd        14.7246925270       10.6055748150       20.1155242456
 Cd        12.2931546927       13.9686839504       20.6275859612
 Cd        10.3141214351       17.5916234882       20.5409954666
 Cd        20.4412364027       17.0418433515        9.4977319433
 Cd        17.8706325191       21.0834498193        9.7656872343
 Cd        20.7091568312       14.3158589455       12.1426030770
 Cd        15.6847233516       22.2081630327       12.6836070341
 Cd        20.6597392916       11.6941028081       15.2564469535
 Cd        13.4621521929       23.0366910907       16.0149444197
 Cd        20.2668105058        9.5204508971       18.3236801698
 Cd        11.6778975690       23.3262596209       19.4009195401
 Cd        17.8244872401       10.4880894407       22.3177709534
 Cd        15.6598625622       13.5583979604       22.9205317857
 Cd        13.4286082351       16.9758817031       23.1825380155
 Cd        11.6729871449       20.3597633219       22.9096258981
 Cd        23.7528213689       16.6096563905       11.8066653999
 Cd        21.5743324911       20.4585849007       12.1194747459
 Cd        18.9982318980       24.0621555551       12.2875150452
 Cd        23.9990715352       14.1505967911       14.7133721506
 Cd        17.0536632318       25.0539542906       15.4135009508
 Cd        23.6634130680       11.7044694223       17.6333925373
 Cd        14.9004980156       25.5315660861       18.5028424906
 Cd        21.5235224656       12.6736438576       21.3546472647
 Cd        15.1314029460       23.2397632381       22.4714373607
 Cd        18.9464286601       13.4596080708       24.8417873660
 Cd        17.0337112711       16.7166425909       25.2907992380
 Cd        14.8475412403       19.7712661904       25.2730544222
 Cd        25.0869356726       20.1456255223       14.8011271476
 Cd        22.9102435011       23.5620646215       15.0183083846
 Cd        25.3017848470       17.5988881769       17.6359511311
 Cd        23.3229950925       21.2516549296       18.0174241266
 Cd        20.8365352292       24.6086366851       18.0640085143
 Cd        25.0078958980       15.2722297586       20.6523482262
 Cd        23.2783982313       18.6469434433       21.1439031961
 Cd        21.0553195051       22.1200490738       21.3827395653
 Cd        18.7062802468       25.1629935195       21.2049921400
 Cd        22.7725463469       16.1838218264       23.9665478163
 Cd        20.6951776261       19.4787975806       24.4264193914
 Cd        18.3276442979       22.8759626474       24.3480341519
 Se        15.1621455196       10.8230124686       11.7614749986
 Se        12.7513513534       14.8050229928       12.2730171069
 Se        10.1277045884       18.7034330172       12.3271330481
 Se        12.8571115524       11.9956499928       15.8843689702
 Se        10.4205738369       15.4343789857       15.7283592093
 Se        10.0706363595       12.6491656776       19.5605778256
 Se        18.7135775841       13.1329001397       10.9023268097
 Se        16.2784914231       17.0838028892       11.4266938337
 Se        13.7031602235       21.0101510207       11.4181144971
 Se        18.6803685115       10.2859557130       14.2454625103
 Se        11.3045368496       21.8804692710       15.0194944496
 Se        16.2970010449       11.4268678888       18.0997698786
 Se        11.6530720559       18.7759306194       18.5355519569
 Se        13.6759143185       12.1220991686       21.9415027484
 Se        11.2625046781       15.8314431043       22.1933658713
 Se        22.3125261170       15.4128987752       10.0840564837
 Se        19.8249186569       19.4309913588       10.5016281654
 Se        17.2070495018       23.3930273842       10.6068656201
 Se        22.3255099213       12.6562581964       13.4258095036
 Se        14.9269927258       24.2575131884       14.1645779117
 Se        22.2155072347        9.8330072074       16.7002492039
 Se        12.5213934056       25.0542011321       17.7038771813
 Se        19.8045682791       10.8816059711       20.5879228141
 Se        12.9335129842       22.0836231187       21.3574528237
 Se        17.1492939128       11.7001120171       24.4516951121
 Se        14.9025870083       15.3629114457       24.6904086333
 Se        12.4538502898       18.9531184635       24.9025063757
 Se        23.4918675552       18.9578363145       13.0329166352
 Se        21.0699855815       22.7206125331       13.2873101108
 Se        23.3974411386       16.1632993815       16.3917721214
 Se        18.6982611998       23.4975815344       16.8571001277
 Se        23.4321684454       13.3384421359       19.7214806030
 Se        16.3463955785       24.3355803538       20.3395010662
 Se        21.0565791744       14.2033701328       23.4038462428
 Se        18.7219252661       17.8495838998       23.5354468844
 Se        16.3402118372       21.2155794231       23.6865624192
 Se        24.9496131954       22.3868202708       15.9970780114
 Se        24.9293773665       19.5639803058       19.2766954162
 Se        22.5449927582       23.2862917955       19.4936378718
 Se        24.8559387436       16.8498156030       22.6425102716
 Se        22.5208469630       20.4820933491       22.8712999583
 Se        20.1763811704       24.1297672477       23.0142059605
 Cl        16.2493805357       24.7592432851       24.2328505440
 Cl        18.7506799964       26.1094205003       13.6731461019
 Cl        12.8527424050       17.5533595735        9.1182820586
 Cl        18.6967063322       15.1559846141       26.6407654553
 Cl        11.1664111122       11.2701034639       12.8044488129
 Cl        26.6669692408       15.6929272430       18.8332538297
 Cl         9.4794706584       19.6873329431       21.8939089288
 Cl        19.7734353886       26.5708781941       19.4008819830
 Cl        16.3034276555        8.8213098078       21.2753319024
 Cl        19.6236587150       21.2586705443       25.9485411283
 Cl        16.4025982603       26.9568189754       17.0828453588
 Cl        15.0590972441       14.0900299651        8.8500124612
 Cl        12.7986469988        9.2449897864       18.9962838519
 Cl         8.2899238081       16.5419401003       19.2280546051
 Cl        21.9379864072       17.5471613993       25.8494273121
 Cl        25.5202217117       12.6555228832       16.2575289445
 Cl        18.3573434172        8.0428125699       17.8074546978
 Cl        25.5742131927       15.4002072407       13.0029764428
 Cl        22.0756550000       25.6911789540       15.9802955436
 Cl         8.2951741747       19.1068777599       16.1868910540
 Cl        14.8546933811        8.6023357975       15.2473123847
 Cl        16.3537267786       19.7713743162        8.2997840273
 Cl        18.5392271522       16.3423099308        8.0677559971
 Cl        26.7096639701       18.4095503443       15.5564012882
 Cl        16.3445884214       18.6247042229       26.9322581274
 Cl         9.4827154755       22.2507746789       18.8497976137
