     608
 i =       50, E =    -18076.3358733277
 In         7.3288223613       10.2765349199       16.6965503932
 In         7.4925951878       13.5763767645       13.7416257170
 In         7.1502062657       13.6502588521       19.9937887804
 In         7.3211436479       16.6114810728       10.2739775176
 In         7.3375153222       16.7914208597       16.8693730346
 In         7.0750497511       16.8727226761       23.2875679928
 In         7.0701731614       19.9166153435       13.6606751783
 In         7.3388009914       20.0047662076       20.0884160513
 In         7.0733296420       20.1741701178       26.5053812358
 In         6.9991439024       23.1281070665       16.9485755794
 In         7.3377382091       23.2904988244       23.3018120122
 In         7.2384631908       23.5462441299       29.7972243724
 In         7.0697231287       26.4217558850       20.1645945316
 In         7.5659914518       26.6631637448       26.6636038339
 In         7.2347053034       29.7194171475       23.4635680170
 In        10.2812317691        7.3199684316       16.6276193159
 In        10.3625834369       10.2937607891       14.1531119611
 In        10.3598116749       10.2887721068       20.0686509883
 In        10.4586259370       13.7433282259       10.0412859192
 In        10.4480129085       13.5733457326       16.9587234082
 In        10.2853737970       13.5010987074       23.2938220783
 In        10.2746483183       16.5414171931        7.3131221197
 In        10.3754584395       16.9388480582       13.4947979048
 In        10.3738481442       16.7814720464       20.1520757009
 In        10.2163527891       16.7908243600       26.6552792087
 In        10.2874220112       20.0710103676       10.2846841115
 In        10.3653741636       20.0831491495       16.7177411431
 In        10.3692010447       19.9317964763       23.3661370407
 In        10.2827985899       20.0844302323       29.7201381188
 In        10.2057276349       23.2865592188       13.5025963755
 In        10.3015616370       23.2842918244       19.9323944676
 In        10.3712795422       23.2122062404       26.5074792373
 In        10.2015713824       23.5440010612       32.7604594478
 In        10.2060167089       26.4993779421       16.7116364754
 In        10.3741047236       26.4264688595       23.1413446132
 In        10.2080895426       26.5960564829       29.7900174720
 In        10.2811084996       29.6431201457       20.0013305131
 In         9.9730368160       29.5463006506       26.2705597510
 In        10.1996257064       32.6756495975       23.3834263178
 In        13.6526900617        7.4887537898       13.7418923572
 In        13.6605944771        7.1480457813       19.9916276781
 In        13.7460475600       10.5307559626       10.0392905318
 In        13.5814724294       10.4458844593       16.9563956796
 In        13.5033287519       10.2785584983       23.3567817720
 In        13.3355820071       13.3994136394        7.5753872770
 In        13.6531122661       13.6509515075       13.4935619234
 In        13.5793451412       13.5094211439       20.1493164014
 In        13.8251299258       13.8287890003       26.2625287074
 In        13.5006950679       16.8737603173       10.3740977203
 In        13.5814185692       16.7939656292       16.7992462596
 In        13.5759110641       16.7171723723       23.2952238810
 In        13.4983365246       16.7919525818       29.8642190694
 In        13.5771971018       19.9027037728        7.0724453832
 In        13.5023508299       20.0852906531       13.4941505260
 In        13.5791608446       20.0078717270       20.0018435728
 In        13.5067209316       19.9266719549       26.5062111370
 In        13.5015230951       20.1726106927       32.9290053595
 In        13.4968244764       23.2883986655       10.2118053061
 In        13.4937002926       23.2916846211       16.7079839822
 In        13.5762130407       23.2134868988       23.2113505800
 In        13.4951100537       23.2067183238       29.6222798228
 In        13.4229619089       26.5055387150       13.4246554820
 In        13.4953779273       26.4947852044       19.8558028109
 In        13.4968138873       26.4246787300       26.5010636494
 In        13.3367212101       26.5982127737       32.4335670535
 In        13.4959507863       29.7926936317       16.7110880244
 In        13.4878017210       29.5508752075       23.1304735879
 In        13.6618312392       29.5491559681       30.0362378815
 In        13.5091789947       32.9177486113       20.0904124762
 In        13.5774037357       32.4310559941       26.4199132981
 In        16.6134369749        7.3252369224       10.2741677727
 In        16.8687055719        7.3388400774       16.8709153038
 In        16.9499420984        7.0740111860       23.2129397164
 In        16.5341603555       10.2799476647        7.3168285956
 In        16.9537592002       10.3788533485       13.4970552867
 In        16.7864566008       10.3672215560       20.1523125857
 In        16.8022598186       10.2086104814       26.5831935202
 In        16.8706263841       13.5668868052       10.3759685568
 In        16.8706016901       13.5764681863       16.7905928869
 In        16.7937391094       13.5103207030       23.2926485223
 In        16.7919077967       13.4965194328       29.7938430833
 In        16.7045452959       16.7105136717        7.4011464137
 In        16.8004450771       16.7968730824       13.5727122178
 In        16.7935401048       16.7916356052       20.0060911556
 In        16.7854780418       16.7839045262       26.5039794089
 In        16.8676077567       16.8714725610       33.0055145967
 In        16.7087587359       20.0702745147       10.3056387283
 In        16.7892093999       20.0745371496       16.7184542196
 In        16.7922220633       20.0027758592       23.2781629617
 In        16.7021265666       19.9349345029       29.7012211584
 In        16.8702317915       23.1276619331        7.0654043700
 In        16.7047130533       23.2925850609       13.4936242456
 In        16.7870950621       23.2836715674       19.9957435162
 In        16.7870486992       23.2128907657       26.4355704668
 In        16.7080492281       23.2955286278       32.6028691397
 In        16.7080632768       26.5032483497       10.2095178271
 In        16.6404264303       26.5041599356       16.6397094748
 In        16.7856571269       26.4226414405       23.2156974723
 In        16.8636034543       26.4972347351       29.6291339187
 In        16.7079599578       29.7921410957       13.4975887770
 In        16.7051876284       29.6317511195       19.9175652386
 In        16.8695434404       29.5544603001       26.5769513834
 In        16.5300234488       29.7206204610       32.7642663612
 In        16.8660704681       32.9267902362       16.8721341633
 In        16.7784115390       32.5951014828       23.2159948179
 In        16.6081801463       32.6792538981       29.8021268470
 In        19.9905939175        7.0757680382       13.6573059278
 In        20.0911521827        7.3387082368       20.0838810039
 In        20.1748522669        7.0789566137       26.5005532547
 In        20.0644848634       10.2868160845       10.2856338215
 In        20.1539300262       10.3696532037       16.7829251528
 In        20.0109682363       10.3642301711       23.3025124039
 In        20.0824364503       10.2832346313       29.7188955766
 In        19.8363092930       13.5753743438        7.0733564403
 In        20.1556569156       13.5020390376       13.5000237824
 In        20.0838220609       13.5814338532       20.0031923650
 In        19.9402200556       13.5034641175       26.5015859535
 In        20.1635920103       13.5798833526       32.9329309996
 In        20.0758632446       16.7045187596       10.3086161840
 In        20.0833718514       16.7885380314       16.7794102188
 In        20.0110622451       16.7916693831       23.2850956019
 In        19.9298682207       16.7071435348       29.7037407639
 In        19.9948784667       19.9889856771        7.3315057598
 In        20.0022336842       19.9968189752       13.5085217822
 In        20.0108698750       20.0084339587       20.0039212171
 In        20.0212936083       20.0113000903       26.5003883357
 In        19.9986072284       20.0072340731       32.6729711208
 In        19.9220422300       23.2869108080       10.3697850129
 In        19.9936799514       23.2799626265       16.7831986874
 In        20.0851887545       23.2844200415       23.2840739092
 In        20.0810501820       23.2954478220       29.7017517400
 In        20.0931969980       26.3503412339        7.0686823018
 In        19.8555154668       26.5016373926       13.4993663768
 In        19.9983434855       26.4995159246       20.0014609327
 In        20.0857102616       26.4993623890       26.5069300451
 In        19.9051175472       26.4925870173       32.9251284530
 In        19.9378490435       29.7190582463       10.2836215591
 In        19.9246119337       29.6326103628       16.7100170961
 In        20.0792460592       29.6359431385       23.2953979060
 In        20.0019909777       29.7170824884       29.7158163891
 In        20.0881804162       32.9216368946       13.5764420557
 In        20.0037825280       32.6594491124       19.9941198672
 In        19.9079637457       32.9235768652       26.4173705033
 In        23.2160966046        7.0740144157       16.8877664574
 In        23.3679910891        7.3353552460       23.3680827690
 In        23.5491904219        7.2426576500       29.7968847498
 In        23.3664685116       10.2098417455       13.5014946707
 In        23.3702906791       10.3572504499       19.9972133053
 In        23.2107220921       10.3755763863       26.5027922918
 In        23.4706117729       10.2038878025       32.7573437275
 In        23.2944612994       13.4298014174       10.2093882044
 In        23.3721312237       13.4984521696       16.7073301288
 In        23.2860050576       13.5811571915       23.2183750279
 In        23.1397528230       13.4958219888       29.6258030115
 In        23.1234404885       16.7907889127        7.0680798247
 In        23.3688821524       16.6332205419       13.4959632317
 In        23.2937322051       16.7899204157       19.9969608962
 In        23.2813143940       16.7950124779       26.4951376563
 In        23.2900188780       16.7876018686       32.6715921466
 In        23.2232097248       19.8518165940       10.3748688982
 In        23.2876978454       19.9936892309       16.7131214278
 In        23.2867266092       20.0796394161       23.2863562983
 In        23.2902262729       20.0851516995       29.7017807572
 In        23.2143912328       23.1398392178        7.3362625176
 In        23.2090282040       23.2048023122       13.5769536128
 In        23.2821499990       23.2775906665       20.0219552285
 In        23.3591802756       23.3627997549       26.5723289447
 In        23.1262074086       23.2080082804       32.9999535195
 In        23.0544254277       26.5078712230       10.3698619773
 In        23.2102744595       26.4308792675       16.7856494544
 In        23.3591806926       26.5670006224       23.3625162659
 In        23.2855697261       26.5769617564       29.7939578820
 In        23.4574694531       29.7256480357        7.3212056933
 In        23.1260148615       29.6279372123       13.4989683780
 In        23.2886246933       29.6414285364       20.0747842417
 In        23.2839760233       29.7981017570       26.5058653891
 In        23.4595621435       32.7542326871       10.2776236898
 In        23.2227175225       32.6596590808       16.7094418897
 In        23.1242925597       32.9989891207       23.1289117634
 In        26.4997501869        7.0760146559       20.1686658178
 In        26.6784986888        7.5752287862       26.6785514705
 In        26.5788633358       10.2072516034       16.7258350820
 In        26.5837888669       10.3768831962       23.2158002288
 In        26.3443535995       10.1129917907       29.5544294418
 In        26.6550801268       13.4237220558       13.4977196531
 In        26.5129338722       13.5032309508       19.9170496350
 In        26.5078200802       13.5726565941       26.4272490173
 In        26.4966845460       13.6505947468       32.5081024056
 In        26.5077362696       16.6372314545       10.2110272093
 In        26.5808000092       16.7029274448       16.7076139960
 In        26.4996038617       16.7969000677       23.2146084240
 In        26.5845331552       16.9454022784       29.6247468288
 In        26.3425741671       20.0043383849        7.1489871511
 In        26.5763620301       19.8402236472       13.4924758669
 In        26.4999878110       20.0031010518       20.0070326862
 In        26.5088858041       20.1566711871       26.4993351768
 In        26.4243710757       19.9894143549       32.9315548952
 In        26.3415957269       23.1261653581       10.4469884770
 In        26.4280431503       23.2099201166       16.7919744029
 In        26.5745271687       23.3575575467       23.2963267117
 In        26.5058527161       23.2928021360       29.7961063480
 In        26.5027775266       26.2567326689        7.4076176153
 In        26.4165188078       26.5047366534       13.5777209818
 In        26.5043874860       26.5069319491       20.1526990329
 In        26.5801550438       26.5824792218       26.5790558392
 In        26.2545034109       29.9623859291       10.4562389576
 In        26.4264817000       29.6377701131       16.8680392180
 In        26.5041404953       29.8681806864       23.2862906850
 In        26.5925105896       32.3583707692       13.3389629619
 In        26.4185956899       32.9257567788       19.8965950315
 In        29.8080264575        7.3144964781       23.5548376821
 In        29.7242950330       10.2890700249       20.0110635275
 In        29.7995490641       10.2827899361       26.6631445216
 In        29.8670975051       13.4973043195       16.7894125316
 In        29.6317396876       13.4953810511       23.2153838804
 In        30.0392059626       13.7430610509       29.5521491381
 In        29.8687915022       16.7054118220       13.5032619940
 In        29.7080116901       16.7120207187       20.0021698610
 In        29.6321094361       16.8722584328       26.5005243514
 In        29.8795151901       16.6968290287       32.6822972266
 In        29.6291632991       20.1705141716       10.3656422417
 In        29.7044850065       19.9175109054       16.7910678206
 In        29.7034572495       20.0799005132       23.2945560069
 In        29.7207544709       20.0792458920       29.7106582483
 In        30.2135125900       22.6375247286        7.4866154650
 In        29.6214679222       23.0476136094       13.5823117738
 In        29.7034299690       23.2915028556       20.0840992686
 In        29.7932585096       23.3570970276       26.5070234111
 In        29.7190189423       25.6842396497       10.2004812700
 In        29.5596772452       26.5144487040       16.9477070260
 In        29.7920454228       26.5834528184       23.2875098943
 In        29.4705745257       29.9727357989       13.7455902978
 In        29.7119566078       29.7214064511       19.9950946699
 In        29.7114524938       32.7561087614       16.5330780294
 In        32.7607729781       10.2774810512       23.5528256719
 In        32.9359236941       13.5689776252       20.2495040087
 In        32.5036234989       13.4091663248       26.6692872493
 In        33.0097411266       16.7932006124       16.9585998878
 In        32.6675426583       16.7089947852       23.3702970379
 In        32.7694321116       16.6166025652       29.7179964671
 In        32.9361716821       20.0074794051       13.7359597646
 In        32.7420264145       19.9928262858       20.0843419114
 In        32.9272752843       19.9137806851       26.4272674073
 In        32.8449784861       23.2939000226       10.3589401099
 In        32.6723785383       23.2096827319       16.7951229559
 In        32.9330718143       23.2049141117       23.2057643856
 In        32.5101497277       26.2646108646       13.5715864499
 In        32.9284641508       26.4235942781       19.9106771459
 In        32.6723326319       29.7962992202       16.5390354442
 Sb         8.4669663848        8.4831676072       14.8629546908
 Sb         8.7365017876       11.9559759683       18.4196994621
 Sb         8.4402684876       14.8165922375        8.5046825284
 Sb         8.9638798839       15.2418089673       15.2637262471
 Sb         8.6740722966       15.2110972220       21.6901915829
 Sb         8.6541517318       18.4039927424       11.9339372664
 Sb         8.8669078609       18.4162207912       18.4421455879
 Sb         8.6409901291       18.4320232896       24.9487841963
 Sb         8.6102132150       21.6152747063       15.2147299285
 Sb         8.8492288367       21.6249560031       21.6892279620
 Sb         8.6638739378       21.7434317225       28.1269161413
 Sb         8.5956447848       24.8509360143       18.4220775645
 Sb         8.8461321573       24.9026601045       24.9026832934
 Sb         8.4575976420       25.2847141662       31.5388899942
 Sb         8.6775004288       28.0672021600       21.6931948815
 Sb         8.6018611418       28.4459788949       28.3997647174
 Sb         8.4295531510       31.5561779975       25.1607196095
 Sb        11.9791921663        8.6963671693       18.3778184513
 Sb        11.5768942102       11.6015784653        8.6839799155
 Sb        12.0964780957       12.0852119480       15.2686344653
 Sb        11.9321431576       11.8928634559       21.6991100932
 Sb        11.9150767251       15.1934926107       11.9544933498
 Sb        12.0273339099       15.2053962408       18.5219972941
 Sb        11.8427419879       15.1943434539       24.9096185647
 Sb        11.8978202459       18.3646863245        8.6845786625
 Sb        11.9869997965       18.4297630867       15.1739000516
 Sb        12.0022314561       18.3990118046       21.6917871869
 Sb        11.9036715127       18.3852641843       28.1862100391
 Sb        11.8763080637       21.6856706849       11.8844902016
 Sb        11.9543339525       21.6386747250       18.3818433571
 Sb        11.9800126850       21.6071402972       24.8777681737
 Sb        11.8741073158       21.7420118967       31.3371200207
 Sb        11.8413331713       24.8829649319       15.1067500841
 Sb        11.9818555051       24.8236363797       21.5422314297
 Sb        11.8569009362       24.9010215106       28.1408248541
 Sb        11.8682435279       28.1193515508       18.2966114999
 Sb        11.9044597503       28.0383717401       24.8370503698
 Sb        11.5850317524       28.4041081720       31.4423255455
 Sb        11.9043011416       31.2807564792       21.6526654262
 Sb        14.8030981439        8.4717022018        8.5313792501
 Sb        15.2885995929        8.9659084544       15.2828330512
 Sb        15.2157036997        8.6765348742       21.7000479119
 Sb        15.2191923456       11.9421853186       11.9580295071
 Sb        15.2563999372       12.0078939489       18.4883415306
 Sb        15.2109299031       11.8501662225       24.9125008668
 Sb        15.0799022847       15.1101040467        8.8981514832
 Sb        15.2104267579       15.1812311002       15.2014326121
 Sb        15.2139535426       15.1529839088       21.6702038398
 Sb        15.1965076172       15.2106876280       28.2166335027
 Sb        15.1659127559       18.4256049648       11.9667927015
 Sb        15.2050626784       18.4211444890       18.3722991372
 Sb        15.1692049202       18.3723608574       24.8787972530
 Sb        15.1526608034       18.4333792194       31.4539509883
 Sb        15.1484462779       21.5959757199        8.6132730491
 Sb        15.1274618525       21.6601145372       15.1231016331
 Sb        15.2061785109       21.6141580397       21.6102815005
 Sb        15.1546359162       21.5819182262       28.0524523163
 Sb        15.1081733919       24.8857984235       11.8396980930
 Sb        15.1480184017       24.8520757553       18.3283568252
 Sb        15.1528166516       24.8449469290       24.8508994942
 Sb        15.1085860837       24.9093393221       31.1124851744
 Sb        15.0561086752       28.1528063534       15.0538428358
 Sb        15.1575978873       27.9926598655       21.5495001435
 Sb        15.1243055821       28.0567319402       28.1093219584
 Sb        15.1450976883       31.3745359114       18.4133458273
 Sb        15.2091393482       30.9973745555       24.8127624513
 Sb        14.8224007328       31.5502610816       31.5610633673
 Sb        18.4227536858        8.6421923897       11.9420130893
 Sb        18.4685743961        8.8663458071       18.4705895505
 Sb        18.4859916204        8.6507254886       24.8952614042
 Sb        18.3364855779       11.9082770714        8.7096393809
 Sb        18.4992790455       11.9659809146       15.1782047086
 Sb        18.4557854092       11.9789129868       21.6559991404
 Sb        18.3975852968       11.8809785407       28.1573547699
 Sb        18.4553757407       15.1634537635       11.9881456216
 Sb        18.4502865914       15.1925685447       18.4046512143
 Sb        18.3845204968       15.1604087712       24.8842076539
 Sb        18.4143720093       15.1581435114       31.4300569847
 Sb        18.3706592913       18.3624395578        8.8293138370
 Sb        18.4229916602       18.4000649867       15.1737049004
 Sb        18.4036790596       18.3926234844       21.6389428941
 Sb        18.3920331272       18.3924410379       28.1070393132
 Sb        18.3469710182       21.6227395057       11.9395734302
 Sb        18.3934136849       21.6420771496       18.3868409537
 Sb        18.4387968424       21.6252838648       24.8497098082
 Sb        18.3737557952       21.6283438611       31.1798863348
 Sb        18.4031383970       24.8179651802        8.6403343626
 Sb        18.3329476748       24.8520700550       15.1396152430
 Sb        18.4350937812       24.8447776198       21.6238899375
 Sb        18.4349608919       24.8363063782       28.0427452169
 Sb        18.2985202076       28.1264414929       11.8639280960
 Sb        18.3330905441       28.0230696034       18.3255039465
 Sb        18.4225202390       28.0190956429       24.8481733735
 Sb        18.3339315264       28.1177458736       31.3234914104
 Sb        18.4071636687       31.3623642906       15.1595441606
 Sb        18.4025938069       31.1142774959       21.5921403293
 Sb        18.3521809171       31.3308286498       28.0826586928
 Sb        21.6623086903        8.6538149287       15.2033588639
 Sb        21.7218802100        8.8252908393       21.6981925409
 Sb        21.7510076802        8.6684279721       28.1348559058
 Sb        21.7155423903       11.8410985575       11.8899323280
 Sb        21.7288814479       11.9696578986       18.4052973563
 Sb        21.6349747500       11.9928045920       24.8632921202
 Sb        21.7114689564       11.9028904393       31.3671451041
 Sb        21.5807894562       15.1002761981        8.6266711145
 Sb        21.6980326565       15.1293059643       15.1583008972
 Sb        21.6529830995       15.2062214048       21.6341029364
 Sb        21.5806780500       15.1753304604       28.0536536619
 Sb        21.6328211181       18.2858675508       11.9893322726
 Sb        21.6736330026       18.4141626462       18.3841824911
 Sb        21.6547148758       18.4170201896       24.8768849479
 Sb        21.6258189279       18.3819392003       31.1856422100
 Sb        21.5932578220       21.5773269635        8.8812950930
 Sb        21.5899701264       21.6084019587       15.1698385599
 Sb        21.6474670921       21.6429762166       21.6235219355
 Sb        21.6684027812       21.6702001502       28.0761607698
 Sb        21.5583494299       24.8353923685       11.9929011399
 Sb        21.6166519122       24.8526447322       18.4134011558
 Sb        21.7095471276       24.8992400785       24.8990336971
 Sb        21.6048808509       24.8935049052       31.3919530224
 Sb        21.6101321509       28.0855128876        8.6425225565
 Sb        21.5657245127       28.0100628106       15.1377613845
 Sb        21.6624046156       28.0411973275       21.6573942167
 Sb        21.6647846285       28.1501232136       28.1163231030
 Sb        21.6423201541       31.3290131622       11.8869656049
 Sb        21.6231371408       31.1466745756       18.3654816389
 Sb        21.6018516184       31.3893023501       24.8227958850
 Sb        24.9129117783        8.6316449429       18.4470080725
 Sb        24.9561884900        8.8860952533       24.9320348016
 Sb        25.2695503535        8.5121260758       31.5636431425
 Sb        24.9667167924       11.8408214739       15.1108117686
 Sb        24.9221782818       11.9731356135       21.6262698746
 Sb        24.8651345035       11.9834073414       28.0673062849
 Sb        24.9499139894       15.0139940591       11.8533186862
 Sb        24.9058426568       15.1628331361       18.3496343533
 Sb        24.8770499324       15.2006581273       24.8481002573
 Sb        24.8560812863       15.2283397309       31.0490521563
 Sb        24.7883785814       18.3229863968        8.6761180948
 Sb        24.9114633774       18.3130313258       15.1274538644
 Sb        24.8662642074       18.4283241143       21.6362576505
 Sb        24.8778672587       18.4821525312       28.0595311954
 Sb        24.7993150533       21.4811950781       12.0190673551
 Sb        24.8469689968       21.6022928269       18.4001659966
 Sb        24.8984946471       21.7387685602       24.8740443980
 Sb        24.8150403625       21.6511284142       31.4060222218
 Sb        24.7557425412       24.8109596392        8.8967719028
 Sb        24.8396750906       24.8295215603       15.1605920423
 Sb        24.8693768084       24.8856307174       21.6917468402
 Sb        24.9355080729       24.9680701526       28.1983456007
 Sb        24.8085229391       28.0464195715       11.9022517105
 Sb        24.8447659803       28.0031415024       18.4420297125
 Sb        24.9572012192       28.2110517876       24.9288570194
 Sb        25.1902732703       31.5366094661        8.4599166374
 Sb        24.8454291141       31.1214625557       15.1055384477
 Sb        24.8182496858       31.4047926075       21.5857301755
 Sb        28.1543982088        8.6746275976       21.7084596449
 Sb        28.4105340527        8.6430457011       28.4689059697
 Sb        28.1589269667       11.8865203491       18.3402121515
 Sb        28.1510903967       11.8974279540       24.9406783305
 Sb        28.2416576439       15.0952375516       15.1211647688
 Sb        28.0603943569       15.1392143627       21.5965041667
 Sb        28.0935848410       15.1885344234       28.0920154938
 Sb        28.2051742734       18.2599262264       11.8294943756
 Sb        28.0941351143       18.3448076327       18.4073802206
 Sb        28.0471031117       18.4656801156       24.8573240501
 Sb        28.1195839929       18.4323725826       31.3633246540
 Sb        27.9242062720       21.6555335384        8.7300350759
 Sb        28.0318740467       21.5093899528       15.2174454230
 Sb        28.0861601736       21.6529953868       21.6453228746
 Sb        28.1394386845       21.7333396939       28.1224345813
 Sb        27.9650622481       24.7003107109       12.0569763293
 Sb        28.0099461428       24.8197593058       18.4693659886
 Sb        28.1797823173       24.9704170006       24.9014034493
 Sb        28.0453882036       28.0621046765       15.1960615069
 Sb        28.1240526029       28.1813495850       21.6819017647
 Sb        28.4046208322       31.3027098448       11.5649700620
 Sb        28.0778372268       31.3311089905       18.3211752482
 Sb        31.5361407446        8.5438978352       25.3053509228
 Sb        31.3233179027       11.8880566908       21.7279816223
 Sb        31.4650650106       11.6579963863       28.4575585127
 Sb        31.4242837444       15.1428380692       18.4999960851
 Sb        31.1292525620       15.1121064319       24.9381692688
 Sb        31.5951950230       14.8887470316       31.5401110510
 Sb        31.3982705397       18.3390539350       15.2708528693
 Sb        31.2259106530       18.3667956540       21.6841842237
 Sb        31.3178638763       18.3883940547       28.0953466006
 Sb        31.3820708340       21.6084982632       12.0412776909
 Sb        31.2157358146       21.5950280556       18.4421716043
 Sb        31.3759983827       21.6332041581       24.8667534753
 Sb        31.6370429280       24.8645778989        8.4250344875
 Sb        31.0247116533       24.7853860985       15.2555922449
 Sb        31.3772900718       24.8812643760       21.6126891633
 Sb        31.3435613928       28.0977754299       18.3347226577
 Sb        31.5001353203       31.5462388709       14.7702571642
 Cl         6.1668143829       11.9115416480       14.8500296208
 Cl         5.1681081329       12.7531245301       20.7239198283
 Cl         6.2885537360       14.4941724247       11.9191245980
 Cl         5.9817692155       15.2748027509       18.2283218131
 Cl         5.0856575452       15.9455980283       23.9509941686
 Cl         5.1638955575       17.3206711446        9.8520556817
 Cl         5.9672328390       18.1169825034       15.3478738607
 Cl         5.9820864962       18.5033477004       21.4858780119
 Cl         5.0969606885       19.1786154806       27.1192714154
 Cl         5.0303131721       20.6206636466       12.8836503336
 Cl         5.9188935870       21.3679810944       18.6255213185
 Cl         5.9759447132       21.7656732916       24.6781387464
 Cl         4.9758788943       23.7882268765       16.0928401813
 Cl         5.9527689409       24.6297216795       21.7796131897
 Cl         6.1446618895       25.0308342546       27.8896330632
 Cl         5.0740327070       27.1121642277       19.2630895396
 Cl         6.1502709034       27.8693319462       24.9618424331
 Cl         5.2999022774       30.3986143589       22.3906528839
 Cl         9.5867211449        5.2966182091       17.4918667906
 Cl         5.3128852905        9.5304273278       17.5321806410
 Cl         9.1088987727       12.0532335037       12.4917099975
 Cl         8.8575948379       12.1687040480       24.5385341452
 Cl         8.8446056642       15.2755035397       27.7371681086
 Cl         5.2796099775       22.4431295400       30.3607830195
 Cl         9.5043264524       17.4851929770        5.3463732122
 Cl         9.5849097536       22.4369802510       34.7004084183
 Cl         8.6342056855       24.3651297818       12.1924346780
 Cl         8.6544810669       27.6950100956       15.4815290771
 Cl         9.7936814971       34.7738785123       22.4999219335
 Cl        11.9546474258        6.1731636897       14.8183757210
 Cl        12.7963805877        5.1534948616       20.7258475800
 Cl        12.1052375587        9.0895321247       12.4866979567
 Cl        12.2069549709        8.8365693278       24.6164501612
 Cl         8.8887154481       31.1036847638       18.8499927595
 Cl        12.0755283047       14.9802198710        6.1535331335
 Cl        16.1003849771       16.0322157929       34.9977553021
 Cl        12.8281513651       19.2363833568       34.9145414558
 Cl        12.8103200480       20.6882908454        5.0591373173
 Cl        12.1999612403       24.3965937981        8.6494831674
 Cl        12.1141196556       24.9880596067       33.8765040696
 Cl        12.0774502815       27.7779999524       12.0436552633
 Cl        12.2382050679       31.3210024896       15.5116218370
 Cl        12.1828824703       30.8957749197       27.7928729080
 Cl        12.8264847600       34.9448675488       19.2691567445
 Cl        11.9016653004       33.7356407824       25.3207705053
 Cl        14.5573893769        6.2590833336       11.9289020891
 Cl        15.3371562697        6.0021395894       18.2365569440
 Cl        16.0518537791        5.0830572672       23.9180476863
 Cl        15.3717596627        8.7930873973       27.7237066903
 Cl        14.9426815115       12.0978234380        6.2014149744
 Cl        15.3966358596       12.2241766992       31.1349819514
 Cl        15.3063489889       18.1787062453        6.0087900387
 Cl        15.3136425281       21.8042676508       33.9909627049
 Cl        16.0955502114       23.9123267449        5.0534480157
 Cl        15.5477895891       27.7141290879        8.6166357440
 Cl        15.0391219541       27.8440074709       33.8213462693
 Cl        15.5750397855       31.3224037758       12.1825802943
 Cl        16.1084590557       34.9324840031       16.0520298910
 Cl        15.2868161715       33.9618104106       21.8285692241
 Cl        14.6522235565       33.7442043359       28.0975941590
 Cl        18.1903143255        5.9701063727       15.3466030958
 Cl        18.5870702467        5.9596434797       21.4578241302
 Cl        19.2128656251        5.1128439781       27.1903437529
 Cl        17.4733576348        9.5472120400        5.3354166733
 Cl        18.8298461943        8.9173675305       31.1200621867
 Cl        19.3034081530       12.8589992331       34.9353411592
 Cl        18.1500812007       15.3039363292        5.9934510302
 Cl        18.5937174032       18.5555631406       34.0824568495
 Cl        18.5890760500       21.4266514166        5.9376086367
 Cl        18.2170211376       24.6891206940       33.9646940267
 Cl        19.3120064158       27.0680200356        5.0349057720
 Cl        22.6679621814       30.1639597331        5.1915674611
 Cl        19.2730457762       34.9126467272       12.7808201606
 Cl        18.5704400221       34.0497188642       18.5728198688
 Cl        18.1633566449       33.9944582475       24.6701730247
 Cl        17.4605411603       34.7864036481       30.2291624570
 Cl        20.7063882957        5.0426796857       12.8767349511
 Cl        21.4445920620        5.9639952849       18.5765297542
 Cl        21.8170182097        5.9786265138       24.7253535812
 Cl        22.4745785603        5.3238902628       30.5151247695
 Cl        17.3463562753        5.1866828309        9.7965033144
 Cl        22.5960255926        9.7952998409       34.8562711488
 Cl        20.6599142874       12.8260606420        5.0666579919
 Cl        21.8810111450       15.3013246364       34.0316541764
 Cl        21.4423734757       18.5548633994        5.9663488981
 Cl        21.4320826188       21.4338941662       34.0614904184
 Cl        21.8278684564       24.6150360267        5.9641088284
 Cl        20.7313057792       27.1978510303       34.9448167788
 Cl        17.5556945559       30.4177397955       34.7179527785
 Cl        22.5201972558       34.7321237945        9.5377773256
 Cl        21.7753448750       34.0462665884       15.2986138061
 Cl        21.4049250314       34.0827866839       21.4104814012
 Cl        20.7079904581       34.9551718327       27.1186186904
 Cl        23.8976225051        5.0556965496       16.0358954616
 Cl        24.7114045027        5.9707610946       21.8368686309
 Cl        24.9956554415        6.1561266486       27.9094042684
 Cl        24.4747690741       12.2236099889        8.6266832273
 Cl        23.9524131565       16.0780013392        5.0514142210
 Cl        25.3929550755       11.9609215214       33.7957513630
 Cl        24.7283218550       18.2038209697       34.0429638328
 Cl        24.6745030042       21.7303818287        5.9724948720
 Cl        23.9078914236       23.9335701935       35.0292526322
 Cl        25.5006960828       28.1447325275        6.3313883200
 Cl        24.4517921515       27.8470744704       31.3355072743
 Cl        24.4502246121       31.3659788707       27.7478799864
 Cl        25.0369937853       33.8350363442       12.0874564769
 Cl        24.6626084715       34.0075057004       18.1699783965
 Cl        23.9202953583       35.0141503667       23.8785361114
 Cl        27.1446917208        5.0673773212       19.2642630790
 Cl        27.9112183112        6.1757259893       25.0468079867
 Cl        27.7727317568        8.6775778043       15.4684658443
 Cl        27.9605355365       12.1425277814       12.0851349870
 Cl        27.8409259771       12.2433504446       30.9406168759
 Cl        27.8660143594       15.6615864670        8.6050552568
 Cl        28.1820424148       14.7250366328       33.7955119085
 Cl        27.2641055494       19.2477381281        5.1895813832
 Cl        27.1521084639       20.7706273020       34.9619118871
 Cl        28.1329121334       25.2508898891        6.1057557304
 Cl        27.7554226515       24.4634975829       31.3558257064
 Cl        28.0141690256       27.4399017268        9.1094349817
 Cl         8.7759623424       21.0787183655        8.8445843308
 Cl        27.8199963161       31.4156073207       24.3913199583
 Cl        27.8820748824       33.7913736481       14.9148211683
 Cl        27.1819812738       34.9465824640       20.6666886825
 Cl        30.4125602032        5.3413442665       22.4969165613
 Cl        31.3902085597       12.3309595783       15.4944640275
 Cl        34.9144587409       19.3124446315       12.8050616090
 Cl        31.2744444734       20.3702173466        8.4529780260
 Cl        30.4873433323       22.2543351702        5.2305827614
 Cl        30.3256577440       17.5471549939       34.7855728137
 Cl        31.3492159664       24.5528638037       27.7311213566
 Cl        30.9513557812       27.3883857812       11.9283353386
 Cl        31.3819335572       27.8519190092       24.3888836370
 Cl        34.8174308903       30.2086371990       17.2881141227
 Cl        30.4319869802       34.7494255693       17.4508939183
 Cl        34.7227008083        9.6745192951       22.4762795381
 Cl        34.9303250095       12.9318696315       19.3018404055
 Cl        33.8954228616       12.1844097991       25.0209564568
 Cl        35.0114215118       16.1534899671       16.0413094891
 Cl        34.0556572745       15.3458253892       21.8681357582
 Cl        33.8881674940       15.1270024486       27.8612457488
 Cl        34.1080005701       18.5954537503       18.5951845155
 Cl        34.0506074767       18.2391990144       24.7040718639
 Cl        34.7068996680       17.6650935912       30.4285626204
 Cl        34.9074851678       22.4229899529        9.7974947475
 Cl        34.0590033834       21.8486239225       15.3028376010
 Cl        34.0841385533       21.5027258537       21.4573729103
 Cl        34.9202817057       20.8044039413       27.1378348244
 Cl        33.9446768266       25.1267539348       12.0267523181
 Cl        34.0411435088       24.7316499632       18.1239051717
 Cl        34.9427252167       24.0553800202       23.9124297848
 Cl        33.6724672995       28.1403711838       14.4497035300
 Cl        34.9587999320       27.2092684523       20.6307971425
 Cl        31.1471947430       21.2071563917       31.1524722187
 Cl        21.1304463912       31.1838465261       31.1176465979
 Cl        31.1802222660       31.1878387702       21.0356040564
 Cl         8.8922968335        8.8287466387       21.1130343731
 Cl        12.2541143570       15.3330435625       31.1597370884
 Cl         8.9138164573       18.7254155244       31.0168169953
 Cl        31.1312528525        8.9370896890       18.7571198316
 Cl        24.4419066424        8.6378735216       12.1903525560
 Cl        31.4584240927       15.7341038495       12.1221656851
 Cl        21.0984009750        8.8209184166        8.8169910994
 Cl        18.8472766689       31.1247926706        8.7970211765
 Cl        27.9434469349       27.9278513049       27.8702833753
