      84
 i =      126, E =     -2420.3415352970
 In        17.1756667301       14.4649927201       11.1984473918
 In        13.7637911976       17.0407387764       10.6484298213
 In        16.7258534498       17.4197831757       13.9269867018
 In        17.3499003958       19.8246026266        9.9604718309
 In        13.8478964750       17.3473445612       17.2619650900
 In        17.1986783468        6.9232860279       17.1145660221
 In        13.7593350523       11.2847065125       10.8195623993
 In        20.2219997638       14.2231277835       14.3119998495
 In        17.1232814188       10.9590940502       14.3845720750
 In         7.8517106489       10.7204770195       10.6574504686
 In        14.5575953084       20.3044852928       14.0859801968
 In        17.1082861554       17.2770996772        7.5448936368
 In        14.1452870885       13.8466796734       20.3754228653
 In        10.9787802415       10.5122982695       14.1494441613
 In        10.6491797361       13.9098812288       11.3587314702
 In        14.3125632235       10.8180997131       17.3365922585
 In        10.6505685980       10.4412219975        7.8563594084
 In        10.8820022834       14.1453568960       17.3476703653
 In        20.1437730744       16.4852116278       10.2593984951
 In         7.7782099831       14.3109086348       13.6143245449
 In        14.2412482307       13.4528309651        7.9312095334
 In        13.9941817245       13.9859043236       14.3159324200
 In        17.3563209920       14.2362348371       17.4317449444
 In        16.8001229879        9.8027868011       19.9134277457
 In        10.8735824579       17.2006102813       14.3809013217
 In         8.0893538561       17.9732997797       16.7190437182
 In        10.1088398453       16.5732413688       20.1291643846
 In        14.0028789900        7.7781921093       13.9159093866
 In        19.9050592464        9.8818267065       16.6396747018
 In        11.5086369644       20.0533589082       18.0519176357
 In        10.8930190751        7.8485522870       10.1936779458
 Sb        12.4002081819       15.6048972762       12.6445570138
 Sb         9.1101811952       12.0352667826       12.7495850954
 Sb        15.6509695280       12.5004055306       12.5451891490
 Sb        15.9623024103       12.3842793087       18.9636240421
 Sb        15.5750757267       15.5318569700        9.1869936561
 Sb        15.6118450499       15.7221593881       15.8350552346
 Sb        19.3548488115       18.4921684783        8.5708667752
 Sb         9.1283289217       15.5462554562       15.7211493246
 Sb        18.8710379337       16.0679613851       12.7679076853
 Sb        15.4674853200       18.8431931517       11.9178306278
 Sb        12.5191766736       15.6298246363       19.0120253278
 Sb         9.1531118414       18.9693235012       19.0786200373
 Sb        12.4561182866        9.2015683850       12.1514014548
 Sb        11.8978133035       12.6316675003        9.2169410986
 Sb         8.6515698857        8.8155538867        8.8960081590
 Sb        12.5115976255       19.0724772920       15.5927214681
 Sb        18.8773905657       12.4788576342       15.9400657402
 Sb        12.3606204697       12.2279506472       15.8991514446
 Sb        15.6601011238        9.0132402562       15.7166007601
 Sb        18.8846012707        8.3772822864       18.7459108400
 Cl        10.6784740711       10.9908699321        5.6113442014
 Cl        14.4022865512       13.2102943749        5.6546865573
 Cl        17.4696295905       22.1023105535       10.3701770377
 Cl         5.7975393828       18.1643210024       16.4730076456
 Cl        22.3830207253       15.9467127945       10.4973206833
 Cl        19.1911923168       14.0745794630        9.7191134829
 Cl        13.8002560546       19.1774821308       19.0305073540
 Cl         8.5952256980       15.4265585562       11.4321431061
 Cl         9.8825185287       16.2555282198       22.4075292556
 Cl        16.7152170523       19.5175936677       15.3511643513
 Cl         9.2022775892       14.2252491830       19.2669319803
 Cl        15.6988061593       19.3716086600        8.0583944888
 Cl         5.7605584765       11.6707753594       10.3721661431
 Cl        11.2601243559        5.5799915791       10.4429944115
 Cl        13.9311149844        5.4903899424       13.8643555278
 Cl        22.1982842387        9.8689314694       16.3330945770
 Cl        12.4441371817        8.6859878651        8.3066258405
 Cl        16.7631809871       16.7252219307        5.3300537793
 Cl        14.2521090487        9.2884299597       19.3313372222
 Cl        11.9375449565       17.8837143905        9.4589123129
 Cl         5.4900722466       14.4838489977       13.6590524836
 Cl        14.5084319697       22.5958797221       14.2549400760
 Cl         8.9253463174       18.8955797490       14.4191738062
 Cl        15.3535576162       11.2769055802        8.8574167864
 Cl        10.1213457849        8.7722504242       15.4668428375
 Cl        19.1404561400        9.4562526576       14.1224685091
 Cl        18.1959595578        5.8272676190       15.3215328713
 Cl        22.4971285919       14.4583584401       14.5033969810
 Cl        13.9249016816       13.8351243817       22.6584808811
 Cl        11.7480430186       22.3351042906       18.3427216153
 Cl        15.5024277772        5.7425399220       18.1777931394
 Cl        16.6587210139        9.7520358513       22.2234310265
 Cl        18.5620974484       15.7870982766       18.6990070864
