     608
 i =       38, E =    -18239.5145059079
 Cl         7.7897090713       13.4283935348       16.2784141191
 Cl         6.9490551142       14.0103817692       21.8813844008
 Cl         7.8427476755       16.0138048307       13.4205999981
 Cl         7.6993516877       16.5496270387       19.3606534511
 Cl         6.9747109416       17.0236029922       24.8827270454
 Cl         7.0713754466       18.7356199104       11.1699433827
 Cl         7.6902482919       19.2896688654       16.5671831139
 Cl         7.6594309441       19.5902671526       22.4131730117
 Cl         7.0488730902       19.9924682748       27.9071165706
 Cl         6.9776439653       21.8135152696       14.0741787294
 Cl         7.6655827041       22.3275783774       19.6483819270
 Cl         7.7178182424       22.6288561936       25.4622076929
 Cl         6.9331796158       24.7930970413       17.1041040141
 Cl         7.6772142438       25.3895436175       22.6505322593
 Cl         7.7912551242       25.6695292701       28.4301460096
 Cl         7.0355875028       27.8467035017       20.0710039701
 Cl         7.7752813974       28.3859505655       25.6196035739
 Cl         7.1213119664       30.9716190589       23.0629256594
 In         9.0294692277       11.8039754538       18.0415804792
 In         9.1126814750       15.0872137202       15.1797098277
 In         8.8783784617       14.9416524876       21.0909085009
 In         9.1081795968       17.8805165855       11.8058144254
 In         9.1240250733       18.0410068192       18.0560909495
 In         8.8819664962       18.0368216486       24.1291096509
 In         8.9363948402       21.0096271557       14.9345935073
 In         9.1212865010       21.0133023384       21.0832878765
 In         8.9415017927       21.0855202846       27.2278934608
 In         8.8767904312       24.0385463808       18.0407067757
 In         9.1227788826       24.1077265946       24.1236742399
 In         9.0260834699       24.2783610549       30.2700909040
 In         8.9436466845       27.0805855140       21.0796546140
 In         9.2705660147       27.2308485103       27.2358848408
 In         8.9676038613       30.1862118574       24.1918294055
 Cl        11.0244190314        7.0614611338       18.9256612200
 As        10.1986533000       10.1961419732       16.3599652383
 Cl         7.0641147994       11.0126134338       18.9206866968
 Cl        10.6571034568       13.5241319804       13.8737573364
 As        10.3767838358       13.4408282320       19.5586509237
 Cl        10.4957938806       13.5611372725       25.3271292544
 As        10.2487551794       16.1784889273       10.2627882741
 As        10.6142827011       16.5320330512       16.5806050520
 As        10.3570539424       16.4882949727       22.5844914734
 Cl        10.5405927274       16.5352076377       28.2573003146
 As        10.3926035996       19.4587559603       13.4463991697
 As        10.5522517794       19.5133745330       19.5646064484
 As        10.3763150167       19.5610172884       25.6042032379
 Cl         7.1748442956       23.0770713346       30.9461982090
 Cl        10.9897836202       18.8260706300        7.1366424640
 As        10.3658517176       22.4975058404       16.5130115674
 As        10.5099229178       22.5420465603       22.5865317849
 As        10.4020591620       22.6363790452       28.6672532365
 Cl        11.0243779592       23.1033033412       34.8988664896
 Cl        10.3193259332       25.1042946061       13.6265377270
 As        10.3861450258       25.5123625468       19.5508033132
 As        10.5343699677       25.5978942693       25.6232117088
 As        10.2292641406       25.9230601207       31.7992687689
 Cl        10.3367764488       28.2461885901       16.7374891934
 As        10.3981928481       28.5887840926       22.6025980208
 As        10.3176407171       28.8798132712       28.8176184538
 Cl        11.1379342135       34.9565746802       23.1384311365
 As        10.2068065024       31.7780177952       25.7985141347
 In        11.8048816581        9.0291300303       18.0418119761
 In        11.8926935730       11.8929663010       15.5897343163
 In        11.9032524730       11.9024464317       21.0898414293
 In        12.1434082809       15.1701916678       11.6523008434
 In        11.9781928677       14.9351106954       18.1946407914
 In        11.8972385906       14.9314527994       24.1085844087
 In        11.8197355704       17.8129755703        9.0256073216
 In        11.9897999097       18.1115754861       14.9339969953
 In        11.9671708771       17.9559908422       21.1545172823
 In        11.8973236833       18.0428231398       27.1506159666
 In        11.9074685173       20.9989533400       11.8963852608
 In        11.9718735383       21.0722655268       17.9612443928
 In        11.9707106861       20.9971027234       24.1231490766
 In        11.8963900711       21.0852791426       30.1780613551
 In        11.8906587608       24.0354370611       14.9360397133
 In        11.9682413118       24.0478681225       21.0006983266
 In        11.9778829837       24.0371557394       27.1527861320
 In        11.7335870271       24.2805280424       33.0474350887
 In        11.8871518327       27.0621654547       17.9685119810
 In        11.9733381274       27.0751486613       24.0248915197
 In        11.8240373217       27.2296965813       30.1865184515
 In        11.8877057126       30.0951120683       21.0110372462
 In        11.6435105852       29.9450209643       26.9053065884
 In        11.7271542502       32.9583281043       24.1171130723
 Cl        13.4325214110        7.7887278791       16.2779983479
 Cl        14.0261049908        6.9460515944       21.8918417839
 Cl        13.5304225553       10.6505063294       13.8665944506
 As        13.4446667813       10.3761752187       19.5574624329
 Cl        13.5881290550       10.4721520479       25.3357250075
 As        13.2112356681       13.1815375796       10.4014416931
 As        13.5384218865       13.5349230123       16.6120448986
 As        13.4224705589       13.4181313800       22.5746799242
 Cl        10.4933231420       31.5251543635       19.8479421801
 Cl        13.5870403161       16.3037172651        7.8128177414
 As        13.4474139328       16.4948181853       13.4873209992
 As        13.4772694090       16.4966542216       19.5919864391
 As        13.4102305925       16.5109379800       25.5644173628
 Cl        17.0397040905       17.0210816719       35.0328981717
 As        13.4201469230       19.4303212932       10.3918704802
 As        13.4933251664       19.5121504199       16.5129952206
 As        13.4702890314       19.5036286471       22.5779905499
 As        13.4076244928       19.5630550246       28.6241521679
 Cl        14.0977836107       20.0330590181       35.0303557426
 Cl        14.0794833527       21.8782581428        7.0119032705
 As        13.4030676613       22.5103728525       13.4150501507
 As        13.4613193722       22.5199060683       19.5063989965
 As        13.4574042257       22.5387553682       25.5798566372
 As        13.3698209543       22.6342783139       31.6930480745
 Cl        13.6352324763       25.1107950817       10.3128934349
 As        13.3937986288       25.5225053149       16.4701590206
 As        13.4629746195       25.5502194952       22.5070442735
 As        13.3816059994       25.6229909571       28.6521697952
 Cl        13.5762601496       25.6729541577       34.2837477059
 Cl        13.5330405900       28.3511615680       13.5510608883
 As        13.3875552405       28.5771342148       19.4900158173
 As        13.4486780706       28.5656530455       25.5733081651
 As        13.1803897726       28.8669411374       31.7263160606
 Cl        13.6176129458       31.6324060149       16.7556996842
 As        13.3935286149       31.6373545522       22.5500820673
 Cl        13.6054863210       31.4000539706       28.4016227153
 Cl        14.0840934265       35.0691114174       20.0868968604
 Cl        13.3870497114       34.2203175524       25.8823271595
 In        15.0896863437        9.1124148984       15.1805091082
 In        14.9426268780        8.8772789530       21.0887985575
 In        15.1755243916       12.0778483250       11.6531573699
 In        14.9389772140       11.9772807170       18.1929106313
 In        14.9290672755       11.8935416325       24.1069029492
 In        14.8475081525       14.7789749105        9.2715662732
 In        15.0116320989       15.0033005059       14.9333210636
 In        14.9357583902       14.9320377929       21.0929470650
 In        15.1821375588       15.1868675136       26.8956515094
 In        14.9355840168       18.0478242114       11.9777483756
 In        14.9994332832       17.9726055485       18.0355288170
 In        15.0016083603       17.9659709940       24.0461838509
 In        14.8540026374       18.0421675617       30.1706016578
 In        14.9243717673       20.9929767585        8.9427090305
 In        14.9285449736       21.0674058637       14.9334308479
 In        14.9507463370       21.0010949534       21.0099083709
 In        14.9348308242       20.9977620223       27.0786106679
 In        14.8451600955       21.0836223422       33.1389274772
 In        14.9244319713       24.0373634337       11.8985663761
 In        14.9285488419       24.0444878178       17.9591924898
 In        14.9439960056       24.0400832874       24.0401222455
 In        14.8538570771       24.0361496104       30.0919550579
 In        14.8577557716       27.0711741409       14.9329277760
 In        14.9240715526       27.0678540410       20.9362987818
 In        14.9328994181       27.0609650882       27.1435984956
 In        14.7667068762       27.2337616515       32.8034745354
 In        14.8587498475       30.1069820646       17.9611873228
 In        14.8507231243       30.0232361776       23.9533114657
 In        15.1023346264       29.9439102348       30.4326087030
 In        14.8555409765       33.1223115783       21.0007950296
 In        15.0176655829       32.8852107446       26.9820444458
 Cl        16.0214546848        7.8486825912       13.4190356287
 Cl        16.5573724861        7.6995255598       19.3611476363
 Cl        17.0656157464        6.9531876065       24.8846238135
 As        16.2213561433       10.2284183441       10.2335078094
 As        16.5407295131       10.6123978927       16.5793494364
 As        16.4923209202       10.3532979542       22.5838162478
 Cl        16.6054147453       10.4827569794       28.2814482263
 Cl        16.3758434888       13.5567035554        7.7941281661
 As        16.4942297941       13.4237666574       13.4781204050
 As        16.5100364033       13.4686191121       19.5919321193
 As        16.4997576534       13.3931218595       25.5782065721
 Cl        16.6016316414       13.6093469529       31.4794935538
 As        16.4260329651       16.4125918933       10.5599429209
 As        16.4918234561       16.4391340712       16.5264488502
 As        16.4940932093       16.4618400519       22.5203654168
 As        16.4681288630       16.5166972629       28.6735773424
 Cl        16.6089447996       19.3575596364        7.7366052875
 As        16.4720491969       19.5067140772       13.4918231751
 As        16.4935326404       19.4854723630       19.5222511951
 As        16.4679148232       19.4923928930       25.5615789825
 As        16.4121354341       19.5426318967       31.6797381393
 As        16.4815005738       22.4835676707       10.4028568271
 As        16.4479237204       22.5139504864       16.4750376572
 As        16.4554141155       22.5149966118       22.5230106614
 As        16.4207913515       22.5381205595       28.5805938100
 Cl        16.5730471503       22.6438241378       34.3433111235
 Cl        17.0870384276       24.8921776188        7.0051052235
 As        16.4089441380       25.5469733344       13.4216476299
 As        16.4463947511       25.5259254735       19.4813919474
 As        16.4435246548       25.5595083175       25.5669266934
 As        16.3825124720       25.6193860980       31.5107688374
 Cl        16.7421192959       28.3167168792       10.3337094625
 As        16.3900677028       28.5859117417       16.4579218229
 As        16.4352783510       28.5377903284       22.4974503772
 As        16.4701164432       28.5769684856       28.6254269065
 Cl        16.4055137717       28.4100222636       34.2508561920
 Cl        16.7705665099       31.6411156799       13.6326600660
 As        16.4177618509       31.6302129094       19.5066268348
 As        16.4712957081       31.4150475152       25.5272993609
 As        16.2433738572       31.7784010099       31.8370615499
 Cl        17.1287679845       35.0131191238       17.1064942591
 Cl        16.5334533561       34.3123095656       22.6842019065
 Cl        16.1034419524       34.2175393812       28.6196638306
 In        17.8943358926        9.1055824981       11.8102467723
 In        18.0495570409        9.1229377375       18.0556126785
 In        18.0385497137        8.8755737857       24.1202706840
 In        17.8839316335       11.8096594313        9.0294558886
 In        18.1211448721       11.9803045091       14.9251738333
 In        17.9637575818       11.9583487254       21.1517092913
 In        18.0397858891       11.8972372869       27.1512882076
 In        18.0475432850       14.9289140324       11.9802131454
 In        18.0406427231       14.9380728000       18.0378324185
 In        17.9708515976       14.9415947883       24.0478566760
 In        17.9695287434       14.9282684107       30.1712168836
 In        17.9538887372       17.9416710122        9.1880067756
 In        17.9750684523       17.9718149035       15.0028328783
 In        18.0373236296       17.9667332071       21.0064494326
 In        17.9647439955       17.9662397177       27.0708648252
 In        17.8875006279       17.9643269225       33.1314430024
 In        17.9507821352       21.0623817056       11.9871514358
 In        17.9693284063       21.0006343376       17.9679306639
 In        17.9680077372       21.0032658349       24.0373912980
 In        17.8786622605       20.9930793311       30.0865129193
 In        17.9609190586       24.0410297146        8.9385933853
 In        17.8927871192       24.0502227811       14.9358633376
 In        17.9635526381       24.0349400268       21.0051343209
 In        17.9596578848       24.0338819385       27.0670025051
 In        17.8826185289       24.1136050734       32.8937918554
 In        17.8903046636       27.0725549069       11.8993771264
 In        17.8883550973       27.0698639689       17.9500839784
 In        17.9586631031       27.0561213500       24.0385109348
 In        18.0373708250       27.0778339932       30.1013125242
 In        17.8869301026       30.1010439649       14.9361490496
 In        17.8825725251       30.0298399823       20.9303223057
 In        18.0421723212       30.0250105097       27.1551509216
 In        17.8819818753       30.1878360492       33.0479599050
 In        17.9549872859       33.0598600345       17.9665794029
 In        17.9651339122       32.8811731273       24.0321761867
 In        17.8853999754       32.9588880053       30.2739407969
 Cl        19.3287634048        7.7123101684       16.5672126977
 Cl        19.6369218945        7.6803984676       22.4192895532
 Cl        20.0390494490        7.0461763603       27.9020151339
 Cl        18.9221142439       10.9690370520        7.1588079514
 As        19.5030218843       10.3891561877       13.4442410452
 As        19.5371403108       10.5401041209       19.5692330599
 As        19.5542731657       10.3863769018       25.5864540053
 Cl        19.7716507049       10.5170607345       31.4873872484
 As        19.4575030532       13.3969344098       10.4256123790
 As        19.5501015436       13.4680830082       16.4930224947
 As        19.5289643307       13.4644748144       22.5583890954
 As        19.5095074945       13.4546190124       28.6218454910
 Cl        20.0553902584       14.1109642356       35.0450587931
 Cl        19.3751473873       16.5728346849        7.7555442670
 As        19.5088416791       16.4517201579       13.4976991937
 As        19.5541376179       16.4608001497       19.5013383706
 As        19.4814938459       16.4577891576       25.5545015326
 As        19.4855009016       16.4896691843       31.6658638508
 As        19.4743740565       19.4493472713       10.5913536845
 As        19.5073711807       19.4797905820       16.4823243019
 As        19.5007449907       19.4921934185       22.5288976556
 As        19.4408838353       19.5135479140       28.5725353536
 Cl        19.5743119981       19.5819180898       34.3400098338
 Cl        19.6004197726       22.3837515730        7.7074009402
 As        19.4722987074       22.5409473176       13.4782725516
 As        19.4664293416       22.5048207459       19.4969215190
 As        19.4784403972       22.5161454389       25.5507827084
 As        19.4118193573       22.5421923740       31.5259482222
 As        19.4915554461       25.5642900611       10.3868366237
 As        19.4262658985       25.5438736961       16.4568546567
 As        19.4764327996       25.5443590844       22.5201034575
 As        19.4837056884       25.5259026838       28.5858193222
 Cl        19.3668870588       25.3986215889       34.3348299140
 Cl        20.1183677928       27.9253405213        6.9793061494
 As        19.4196271076       28.5718333631       13.4331366165
 As        19.4440510153       28.5268602478       19.4821307400
 As        19.4781341258       28.5287893685       25.5781278362
 As        19.4707393592       28.5842565972       31.6535418910
 Cl        23.2120902074       30.8746313543        7.0897408786
 As        19.4824083890       31.5900795128       16.4699153739
 As        19.4531683923       31.4403281681       22.5181662660
 As        19.4480965599       31.6388109347       28.6047560299
 Cl        20.0990544006       34.9795810583       14.0755376746
 Cl        19.6119699998       34.2665736213       19.6278867277
 Cl        19.3116601044       34.3143834619       25.4527600484
 Cl        18.8476051870       34.9728263393       30.8373541764
 In        21.0815301440        8.9402705134       14.9340760776
 In        21.0782857736        9.1234469748       21.0789170974
 In        21.0861737766        8.9399772697       27.1565303882
 In        21.0713942199       11.9034045040       11.9052612735
 In        21.0868901173       11.9670588395       17.9652800058
 In        20.9994546617       11.9735550312       24.1175062150
 In        21.0081855783       11.9022052982       30.1100021972
 In        20.9956834181       14.8552128321        8.9426680963
 In        21.0885419034       14.9312497882       14.9318364759
 In        21.0721969913       14.9392256681       21.0055494407
 In        20.9899209751       14.9376225867       27.0732044904
 In        21.0008078540       14.9235973028       33.1276759950
 In        21.0738936384       17.8869761447       11.9804765380
 In        21.0730629805       17.9651791477       17.9617394262
 In        21.0016868001       17.9674733564       24.0408022758
 In        20.9168723368       17.9505297668       30.0313428819
 In        20.9276184800       20.9935157992        9.1841870033
 In        20.9962749601       20.9977752330       14.9436976261
 In        21.0020261975       21.0025188609       21.0010049157
 In        20.9975034342       21.0035999458       27.0637812095
 In        20.9226123875       21.0056462209       32.8912268922
 In        20.9161622658       24.1124657363       11.9813477512
 In        20.9292756452       24.0381800223       17.9706791427
 In        20.9962718461       24.0364048254       24.0407441297
 In        21.0096833720       24.0450653813       30.0966573075
 In        20.9943697795       27.1442752357        8.9397140698
 In        20.9120960170       27.0707544244       14.9381233864
 In        20.9926898463       27.0589543824       21.0076956073
 In        21.0097801306       27.0684005265       27.1379336188
 In        20.9987799684       27.0777660889       33.1281570318
 In        20.9249135513       30.1089879067       11.9711939306
 In        20.9171122051       30.0213343510       17.9524148858
 In        21.0068943492       30.0284314963       24.1121955225
 In        20.9989254557       30.0987401779       30.1106205158
 In        20.9948632037       33.0584250708       14.9338253227
 In        20.9955504150       32.8131308049       21.0049353706
 In        20.9995792787       33.1214648616       27.1447878477
 Cl        21.8742625982        6.9754048028       14.0800587884
 Cl        22.4056907295        7.6928137915       19.6436805184
 Cl        22.6420309849        7.7391011485       25.4316978554
 Cl        23.0355885883        7.1871820717       31.0350586330
 Cl        18.7609534713        7.0624746319       11.2055780972
 As        22.5497605305       10.3939800122       16.5110684831
 As        22.5687560608       10.5491936532       22.5745937156
 As        22.6018383102       10.4096430294       28.6419699584
 Cl        23.1056587152       11.1422731298       34.9557676550
 Cl        21.9135163846       14.0517862479        7.0095925139
 As        22.5714394971       13.4168589917       13.4187075706
 As        22.5773518139       13.4509355452       19.4906661832
 As        22.5355420209       13.4606943878       25.5832633327
 As        22.5380490681       13.4181728790       31.6573709060
 As        22.4982962477       16.4314843625       10.3826341725
 As        22.5774693227       16.4489080763       16.4549933475
 As        22.5318166531       16.4642043942       22.5321015830
 As        22.4903369261       16.4694945188       28.5653865525
 Cl        22.6427852700       16.5904898556       34.3307401303
 Cl        22.3287888241       19.6457604021        7.7070675976
 As        22.5178944576       19.4495542926       13.4802862026
 As        22.5310015923       19.4913407633       19.4944462160
 As        22.5111605032       19.4833595862       25.5548645667
 As        22.4534201868       19.5262429295       31.4620055187
 As        22.4503702466       22.4884231987       10.5934101896
 As        22.4745568966       22.5067153635       16.4889664426
 As        22.5016009794       22.5069187443       22.5340705517
 As        22.4956561061       22.5495652839       28.5503516679
 Cl        22.3559759254       22.3494759815       34.3213172662
 Cl        22.6536988013       25.4333963637        7.7499244323
 As        22.4775560362       25.5552285352       13.4783307150
 As        22.4813444669       25.5058343747       19.5134734842
 As        22.4826035099       25.5596574725       25.5647860675
 As        22.4848349309       25.5186823252       31.6443980060
 As        22.5089683255       28.6396533816       10.4111093377
 As        22.4653292424       28.5275329150       16.4698893785
 As        22.4952368022       28.5377224040       22.5574874952
 As        22.5146289420       28.5919094684       28.5978544650
 Cl        21.9311780592       27.8735678720       35.0591250821
 As        22.5359569550       31.6036815909       13.4428966094
 As        22.5085454856       31.4266798899       19.4848131723
 As        22.4610292970       31.6300311556       25.5512456980
 Cl        18.9748762640       30.9887195933       34.9089932739
 Cl        23.0672007172       34.9110461666       11.0492393022
 Cl        22.6159124783       34.2667424341       16.6134077553
 Cl        22.3717734241       34.2730591636       22.3773553663
 Cl        21.9112146719       35.0781025834       27.8909938427
 In        24.1157414111        8.9406032467       18.0383101478
 In        24.1189819174        9.1869106242       24.1209434627
 In        24.1956438402        9.0199234701       30.2611974759
 In        24.1119612401       11.8990326611       14.9368448673
 In        24.1185682479       11.9741210622       20.9973932990
 In        24.0307926357       11.9744346495       27.1417635163
 In        24.1110804061       11.7441657410       32.9740496363
 In        24.1082617823       14.9290625645       11.8975696345
 In        24.1161029921       14.9303367853       17.9533247629
 In        24.0437032444       14.9438769259       24.0413338870
 In        23.9471274936       14.8663545748       30.0352700151
 In        23.9552191788       17.9578406152        8.8721623778
 In        24.1058693339       17.9497013532       14.9335992981
 In        24.0415272487       17.9673041269       21.0023286867
 In        24.0354333383       17.9706778618       27.0661357102
 In        23.9618010597       18.0353128737       32.8773021871
 In        24.0354358096       20.9241687176       11.9840671565
 In        24.0331298354       21.0015408866       17.9701000136
 In        24.0333537915       21.0009109162       24.0404147267
 In        24.0425008415       21.0803968381       30.0305210194
 In        23.9572298130       23.9650152783        9.1839391918
 In        23.9664002080       24.0315653368       15.0042727411
 In        24.0293793432       24.0376991589       21.0709063095
 In        24.0360242900       24.1037148474       27.0737224686
 In        24.0320908484       24.0364260712       33.1260896695
 In        23.8863549405       27.1485635258       11.9794602591
 In        23.9603151086       27.0559714874       18.0343781963
 In        24.0376587138       27.0696422016       24.1070303931
 In        24.0336278830       27.0684662783       30.1092543742
 In        24.1164766681       30.2714833644        9.1154939324
 In        23.9489576207       30.0239893207       14.9361992975
 In        24.0384336562       30.0194193272       21.0817826981
 In        24.0333507981       30.1055077753       27.0727435421
 In        24.1115913167       33.0420613573       11.8851314286
 In        24.0351785518       32.8149755439       17.9619353844
 In        24.0291027654       33.0595616334       24.0438198305
 Cl        24.8591143529        6.9987569201       17.0851839995
 Cl        25.4125130574        7.7335463928       22.6589143394
 Cl        25.6079253144        7.8257148242       28.4443819558
 Cl        25.2726048862       13.6971077406       10.3315783124
 As        25.5989290044       10.4078263166       19.5587845955
 As        25.6221583461       10.5622197900       25.6296458133
 As        25.8152861333       10.2223578020       31.8493797938
 Cl        24.8775384300       17.1832855862        6.9295128939
 As        25.6098327562       13.4130677924       16.4544009707
 As        25.5765332877       13.4592223263       22.5420573051
 As        25.5702838330       13.4482211664       28.6186474129
 Cl        25.8213147751       13.4598829750       34.2330179597
 As        25.5963202835       16.4523473509       13.4162725409
 As        25.5595946564       16.4636116828       19.4918546015
 As        25.5471580551       16.4593479396       25.5648259150
 As        25.4740466667       16.5503934737       31.4096149308
 As        25.4532302343       19.4605529728       10.3922246063
 As        25.5515611292       19.4809874239       16.4698972826
 As        25.5414901875       19.4866774105       22.5232899252
 As        25.5319553652       19.5344241484       28.5485292244
 Cl        25.3986897224       19.3381075304       34.3336846957
 Cl        25.3783171542       22.6255240626        7.7307797451
 As        25.4854481138       22.4783465259       13.4993877845
 As        25.5118431021       22.5079280511       19.5250037805
 As        25.5105206794       22.5380513829       25.5610793912
 As        25.5161061894       22.4901809276       31.6402314291
 As        25.4519058052       25.5290179846       10.5759804226
 As        25.4984640567       25.5422282340       16.5004017560
 As        25.5375851617       25.5483379153       22.5686942358
 As        25.5453644139       25.5560017759       28.5966241721
 Cl        24.8588772548       24.8512788513       35.0953582124
 Cl        25.9710120924       28.6651594913        7.9156184722
 As        25.5232734889       28.5553249777       13.4413816065
 As        25.5143881350       28.5179211675       19.5373340632
 As        25.5463605906       28.5983347380       25.5548570949
 Cl        25.1831457420       28.3199771968       31.6721824353
 As        25.7679416272       31.8421809110       10.2909041581
 As        25.5557202077       31.4603736404       16.4229081243
 As        25.5164794624       31.6009737817       22.4946206096
 Cl        25.2061785337       31.6632773035       28.3089028942
 Cl        25.6070327866       34.2757421808       13.6363942360
 Cl        25.3910219759       34.2664123665       19.3668268561
 Cl        24.9086965272       35.0009691920       24.8722872996
 In        27.1566706864        8.9419281052       21.0853937274
 In        27.2377605744        9.2782283984       27.2405029858
 In        27.1458391514       11.8997062060       17.9704727093
 In        27.1517990171       11.9803718396       24.0409026038
 In        26.9154795138       11.6481184336       30.0135541355
 In        27.1443866038       14.9268202240       14.9329613851
 In        27.0741709412       14.9284540241       20.9877462499
 In        27.0804203143       14.9354412785       27.0697985007
 In        26.9085630284       15.0981388634       32.8898487605
 In        27.0715101810       17.9613270467       11.8911559651
 In        27.0717090284       17.9548822922       17.9615193220
 In        27.0587345809       17.9722896494       24.0424181338
 In        27.1442449487       18.1155984158       30.0282538993
 In        26.9941785741       20.9238661379        8.9425597409
 In        27.0691172988       20.9319273269       14.9301145844
 In        27.0586113730       20.9964154696       21.0092353179
 In        27.0660073656       21.0790559473       27.0731905163
 In        27.0726255886       21.0056655939       33.1281220461
 In        26.9898381526       23.9482895698       11.9862530530
 In        26.9965376541       24.0340344237       18.0373382140
 In        27.0614483906       24.0461080440       24.1037195499
 In        27.0656873423       24.0391168899       30.1080657516
 In        26.9875599172       26.8271953512        9.0362226890
 In        26.9976639512       27.0722171596       15.0059935310
 In        27.0660737902       27.0661087871       21.0833386752
 In        27.0681816563       27.0758191446       27.0754729128
 In        26.8197311147       30.4270909551       12.1434508546
 In        27.0146029662       30.0251999692       18.0478861511
 In        27.0689941040       30.1013979056       24.0419699265
 In        27.1491523489       32.8045783326       14.8505297585
 In        27.0707122136       33.0577627006       21.0003149834
 Cl        27.8699035058        7.0181721219       20.0715079626
 Cl        28.4191528773        7.7955241187       25.6828481472
 Cl        28.3016108090       10.3536127006       16.7091414372
 As        28.6328220256       10.3854277240       22.6365742275
 As        28.8153434960       10.3581488867       28.8807682052
 Cl        28.4461862254       13.6698363309       13.5062600232
 As        28.6102900557       13.4232101777       19.5167824332
 As        28.6171535845       13.4193843126       25.6293910169
 Cl        28.3494590667       13.6569744546       31.4402582923
 Cl        28.4636422214       17.0496005370       10.2808640806
 As        28.6062984472       16.4733453343       16.4659553033
 As        28.5327373683       16.4446399877       22.5323582421
 As        28.5665266073       16.4708034945       28.6191770391
 Cl        28.5716169079       16.1820208917       34.1995554468
 Cl        27.9770462610       20.1227040034        7.0413574022
 As        28.6067188693       19.4852158394       13.3981156251
 As        28.5456373065       19.4544777033       19.5140222338
 As        28.5297967156       19.5165377242       25.5695499096
 As        28.5928918129       19.5133851348       31.6449114618
 As        28.4497944725       22.5313820212       10.3930206723
 As        28.4911915509       22.4601475996       16.5264066592
 As        28.5260730511       22.5221312197       22.5472785296
 As        28.5877311218       22.5573439340       28.5734664821
 Cl        27.8413665141       21.9044157454       35.0847120291
 Cl        28.5825208822       25.7630525717        7.7367757662
 As        28.4972013071       25.4293829019       13.5263266318
 As        28.5358385043       25.5351532571       19.5303127343
 As        28.5864565628       25.5690338406       25.5399923806
 Cl        28.3069574369       25.2048489946       31.6673326319
 Cl        28.5354354992       28.0766073649       10.6603930115
 As        28.5497947572       28.5596992710       16.4872654252
 As        28.5940867040       28.5926235158       22.5163972369
 Cl        10.3771598624       21.9822477230       10.4714052610
 As        28.7792186089       31.6991732731       13.2213424240
 As        28.5472875095       31.5944214634       19.4432009897
 Cl        28.3631079131       31.6550297080       25.1542070339
 Cl        28.3639159446       34.2802200304       16.3813740123
 Cl        27.9275017885       34.9849375794       21.8817291301
 In        30.2671911367        9.0341436778       24.2819516197
 In        30.1066185499       11.9032555815       21.0794030561
 In        30.1768322889       11.8947620955       27.2353399435
 In        30.1118473074       14.9301101665       17.9792651895
 In        30.0243327943       14.9222777316       24.0445232203
 In        30.4217990861       15.1702746798       30.0092506610
 In        30.1108041060       17.9596741954       14.9375814081
 In        30.0328088549       17.8887147396       20.9943444258
 In        30.0223438144       18.0473141146       27.1426281086
 In        30.2677867953       17.9640806277       32.9649377867
 In        30.0147102232       21.1630497174       11.9757918742
 In        30.0262100294       20.9182384735       17.9696481811
 In        30.0271225281       21.0759889981       24.1155893521
 In        30.1018377000       21.0743145224       30.1048553949
 In        30.5113831903       23.5387108103        9.1135765457
 In        30.0134143467       23.8818328421       15.0107673297
 In        30.0298906683       24.0441268903       21.0794181770
 In        30.1069722912       24.1054484515       27.0730597243
 In        30.1753218694       26.3296097291       11.8113655729
 In        30.0192505299       27.1430913860       18.1160658008
 In        30.1073056229       27.0717162887       24.0348589663
 In        29.8531383525       30.4288196875       15.1850066154
 In        30.0949971299       30.1054466478       21.0013504601
 In        30.1110468801       33.0402140132       17.8870717936
 Cl        30.9666891080        7.1675069119       23.1234891195
 As        31.7696898235       10.2776431164       25.9305679442
 Cl        31.6140013434       13.8124174860       16.6271388124
 As        31.6015914420       13.4070051282       22.6501415954
 As        31.6973336768       13.2531583146       28.8895189581
 Cl        34.9554273612       20.1210545247       14.0024327755
 As        31.6428743759       16.4126178811       19.5852060169
 As        31.4372424594       16.4503642512       25.6301678111
 As        31.8369692610       16.2958891812       31.8292832407
 Cl        31.6915415603       21.2993286321       10.1197381494
 As        31.6169719894       19.4417252454       16.5538046590
 As        31.4289518265       19.4663971280       22.5700832261
 As        31.5997472339       19.4741721781       28.6303649226
 Cl        30.8760735288       23.0932909914        6.8929778779
 As        31.6291850164       22.5110543456       13.5382134655
 As        31.4681927082       22.4549205016       19.5448062275
 As        31.6278950365       22.5242769052       25.5522389049
 Cl        30.8297695264       18.9104691906       34.9863138695
 As        31.8946841750       25.4841294882       10.1582362408
 As        31.4104725354       25.4823706124       16.5580139428
 As        31.6399003828       25.5205927935       22.4838725989
 Cl        31.6405447714       25.2790407697       28.3332480546
 Cl        31.3757375124       28.0815524952       13.4221262814
 As        31.6478015901       28.5905315892       19.4735645143
 Cl        31.6831997546       28.3453391679       25.1412715010
 As        31.7110798064       31.8394958419       16.2311865691
 Cl        34.9520958748       30.8581826385       18.7051797381
 Cl        30.9535670309       34.9142336398       18.9155316368
 In        32.9722681425       11.8090218132       24.2820524822
 In        33.1123522290       14.8517327123       21.1524426328
 In        32.7284399644       14.8436901710       27.2336855571
 In        33.1207381676       17.8804953886       18.0510572115
 In        32.8136389313       17.9571645152       24.1222358089
 In        33.0471488977       17.8894133888       30.1948739165
 In        33.0621844981       20.9094734345       15.0134768603
 In        32.8800168717       20.9254601109       21.0761420929
 In        33.0576845929       21.0031884656       27.1465244289
 In        33.0544823921       23.8725999282       11.8111304686
 In        32.8784094876       23.9546517262       18.0453039452
 In        33.1226013259       24.0328454029       24.0432162255
 In        32.8882737309       26.8268362396       15.0194107578
 In        33.1259748100       27.0713574297       21.0045964556
 In        32.8881717037       30.2686487561       17.8815192257
 Cl        34.8376578523       11.1264835334       23.1063317975
 Cl        35.0359331873       14.1893386936       20.1035387810
 Cl        34.2084359746       13.6486356825       25.6771941080
 Cl        35.0424679938       17.1839859979       17.0262004039
 Cl        34.2816554342       16.6290636124       22.6925077761
 Cl        34.2244955884       16.4573173895       28.3971518787
 Cl        34.3307521587       19.6004365595       19.6419886697
 Cl        34.2658361753       19.4198409779       25.4236323715
 Cl        34.9010546119       19.0087152792       30.9756427732
 Cl        35.0997609093       23.0228225743       11.2115517366
 Cl        34.3045988680       22.6419342630       16.5740631883
 Cl        34.3323366731       22.3742222420       22.3764817855
 Cl        34.9765779877       21.9857488720       27.9137277805
 Cl        34.2720264577       25.7011270423       13.4558936162
 Cl        34.3349587132       25.4319258603       19.3006281589
 Cl        35.0684735936       24.9486442297       24.8176118668
 Cl        34.0791085241       28.6445595261       15.9622197333
 Cl        35.0758542865       27.9283903136       21.8295570774
 Cl        31.5070408395       22.1882926649       31.5621303847
 Cl        22.1083981355       31.5899049212       31.4876497213
 Cl        31.5734389174       31.5772803888       21.9981283020
 Cl        10.4137286845       10.3994195403       22.0247843030
 Cl        13.6499214409       16.5648903198       31.4718474696
 Cl        10.5523494759       19.6964707381       31.4471193795
 Cl        31.4927471591       10.5775592724       19.7879907398
 Cl        25.1504238618       10.3221060546       13.6100698925
 Cl        31.6602956631       17.0537192647       13.4734315110
 Cl        22.0816030698       10.4135279957       10.4587203893
 Cl        19.8744258604       31.5256437509       10.4766056893
 Cl        28.4166769142       28.4050655081       28.3897222223
