      35
 i =       34, E =     -1224.0515494520
 Zn        10.2980975771       15.1764476913       10.3126304527
 Zn        10.3877399549        7.8209388361       12.6898498336
 Zn        12.9433356772       13.0128232010        9.9836124177
 Zn        15.1789398994       12.7009894340       12.6121293366
 Zn         7.8124692542       12.6199369898       10.3805118020
 Zn        12.6190813641       15.1872994618       12.6204550519
 Zn        12.6184855246       10.3690832420        7.8177222891
 Zn         7.8254364370       10.3095695179       12.6990531702
 Zn         9.9881908632       13.0116186293       13.0119533617
 Zn        13.0124789469       10.0579397086       12.9476163148
 Zn        10.2958933540       12.6218789258        7.8214082677
 Zn        10.3860526015       10.3765561817       15.1810866102
 Zn        12.6918523360       12.6950840562       15.1716918135
 Zn         9.9924004424        9.9863691224       10.0506559702
 Zn        12.6885855159        7.8269011770       10.3183546905
 Zn        15.1785307277       10.3863524435       10.3006572004
 Se        11.4821763323       11.5195828536       11.4972845083
 Se        11.3845342498       14.4644358989       14.4397100437
 Se         8.5648380321       11.6131184180       14.4679139327
 Se        11.6771551827        8.6000821795       14.4441946893
 Se        11.5546238481       14.4376707968        8.5178159872
 Se        11.3726621913        8.5637486775        8.5642412051
 Se         8.5308248383       14.4376457853       11.6194585105
 Se        14.4071482202       11.6541900672        8.5227299808
 Se        14.4065844845       14.4744179024       11.3369364926
 Se        14.4729636047       11.4273611135       14.4085341805
 Se         8.5697710376        8.5193269459       11.4350233496
 Se        14.4702702058        8.5960570678       11.5835446499
 Se         8.5261534564       11.3409285518        8.5895972149
 Cl        11.4415945659       11.4854434755        6.1830515762
 Cl         6.1980353789       11.4596448488       11.5481912698
 Cl        11.5494967809        6.2149613525       11.5110092042
 Cl        11.4489930986       16.8028376136       11.4655608553
 Cl        16.8008963288       11.5608640435       11.4388215451
 Cl        11.5478619852       11.5366284820       16.7989549555
