     381
 i =       42, E =     -9311.0195875678
 Hg        16.7883931758       23.4051551000       16.7541334663
 Hg        20.1404904316       26.5744265830       16.6828088500
 Hg        23.2786643527       29.4922188766       16.4764985484
 Hg        18.4569793382       26.9846198879        7.0511522132
 Hg         7.4329070765       13.7307686578       16.2679958355
 Hg        10.3317191324       16.7950934994       16.6664884334
 Hg        13.6015989949       20.0885450881       16.7815714859
 Hg        20.0601114149       23.3716938491       20.0392431334
 Hg        23.4484257977       26.6374565888       20.1361713076
 Hg        26.7388432220       28.8513016447       19.8328789265
 Hg        13.2817517655       10.0349154187       13.1811675883
 Hg         7.1154927161        9.9687491933       18.4731414249
 Hg        10.1827139767       13.4305376612       19.9919186774
 Hg        13.5136917171       16.7601185886       20.1240312601
 Hg        16.7898332552       20.1518934379       20.0974106917
 Hg        23.3972593387       23.5191829996       23.4376870517
 Hg        28.2000967104       26.4780480558       23.4667064287
 Hg        16.6819638908       13.4600932038       13.3685309192
 Hg        10.1573927923       16.3105532713       10.1713936033
 Hg        10.2614393982       11.2964387632       23.2859389146
 Hg        13.4489743377       13.5350061836       23.3939052687
 Hg        16.8351076261       16.8952364542       23.2756927750
 Hg        20.1754528634       20.2447513806       23.3786227586
 Hg        25.6334672766       23.3946463474       26.6294459644
 Hg        20.1357215249       10.4478525342       20.1339966581
 Hg        13.4496673127        8.8062354257       26.4464122006
 Hg        16.7607698531       13.5124155710       26.5152451098
 Hg        20.1650569405       16.8254176757       26.4557043658
 Hg        23.5156569664       20.0945682461       26.6811366202
 Hg        23.4753088172       13.4800948648       20.1937233847
 Hg        29.5970213603       16.6712843507       23.4535629023
 Hg        23.3718930704       16.8539969172       16.7673184687
 Hg        23.5131623890        6.6327507326       15.8766183980
 Hg        23.4733405857       23.5236674942       16.6485609627
 Hg        20.3153780177       13.6164606572       29.3444644976
 Hg        23.2186243343       16.4622923387       29.3768068483
 Hg        26.9331488190       18.5398580905       29.7937820101
 Hg        20.1862154161       16.7974067500       13.4875322149
 Hg        19.9492584312       16.9482579600        6.9367946254
 Hg        10.6262566423        7.5951313866       19.5339866158
 Hg        13.6816409649       16.5042840174        7.4675126471
 Hg        22.9524455291       10.6174465813       10.5151436736
 Hg        16.9288823728       19.9622695457        6.9248715359
 Hg        30.0646619057       26.7139736280       18.4231253332
 Hg        23.7585490602       13.2411420716       26.9133456325
 Hg        29.6089341333       20.3499737914       13.4150293303
 Hg        13.9555967131        7.3138819001       22.6219499217
 Hg        13.4516889318       13.4817125222       16.6255333407
 Hg        26.8310181129       20.7163995056       10.1925234137
 Hg        26.5591297836       16.7982359023       20.1302871774
 Hg        16.7570403857       10.3440911139       16.6788900832
 Hg        18.5291697385        6.9209488277       26.6264687744
 Hg        20.6585134512       26.8493986013       10.1913079956
 Hg        20.1189795775       20.1588238812       16.7093155565
 Hg        16.8919100430        7.1231837386       19.8682131902
 Hg        20.6637493475       10.2653411057       26.6721262677
 Hg        10.6016802487       22.9620602233       10.4828165790
 Hg        13.6058874033       25.6521593924       10.1638928793
 Hg        17.3449314745       29.3466712997       10.5296021899
 Hg         7.8555591471       19.7692362298       10.3382882199
 Hg        13.4684198372       23.4479489308       13.4000933807
 Hg        16.8245687368       26.6642210634       13.3587410759
 Hg        20.3782000966       29.6665582048       13.4545288011
 Hg        16.3592141973       10.1658240174       10.1632902458
 Hg         7.2724148091       16.6582115066       13.2883378843
 Hg        10.1354070368       20.1931567816       13.3764522407
 Hg        16.7463230961       26.6437809355       20.1266712945
 Hg        19.7446503161       29.8995286682       19.7721059688
 Hg         7.0407410787       16.8773931622       20.0359052709
 Hg        10.4357378540       20.1627238433       20.1198390506
 Hg        13.4372000490       23.5025120840       20.2020598767
 Hg        20.1608931067       26.8599767176       23.4222456842
 Hg        23.4824325762       30.4125987583       20.9319779883
 Hg         7.5754361707       13.9797431803       23.0067120945
 Hg        10.2314520087       16.8937115250       23.5872078118
 Hg        13.4325227391       20.3016601449       23.4539345401
 Hg        16.6735505288       23.5568469761       23.4365744594
 Hg        22.9315733925       26.3985702570       26.3163148036
 Hg        23.3532699836       20.1660561721       20.0721440632
 Hg        22.9418900049       13.9610660277        7.4941918525
 Hg        23.4308767301       13.5049250061       13.4047840571
 Hg        20.0800361017       13.6382070341       16.7845165191
 Hg        10.5829810677       13.9992713238       26.2984396682
 Hg        13.4565858727       16.7837508006       26.7542480480
 Hg        16.7200776492       20.2028392955       26.5323445691
 Hg        20.0418718190       23.6876190940       26.6786433785
 Hg        28.2246596827       10.5547478761       13.3756649428
 Hg        15.9603893098       13.4979347511       30.2993944728
 Hg        17.1213664864       17.2710606303       29.8231506304
 Hg        20.0141583905       20.1845442160       29.8472985621
 Hg        22.9719010759       23.0952479841       29.3111475613
 Hg        23.3906678442        7.5745166024       20.2404237643
 Hg        23.4639333193       10.4058644658       16.7059259894
 Hg        26.7017151319       26.7750060511       16.3265892163
 Hg        13.4421856475       10.2952593970       20.0564602247
 Hg        10.0018029381       13.2012452756       13.1828642275
 Hg        25.6286967853       13.6268403202       10.1752153424
 Hg        29.2993051234       17.3646543317       10.5116913419
 Hg        23.5346557865       16.9182589285       10.1591727492
 Hg        18.6150877522       10.2005957315        7.0049314189
 Hg        26.7698838787        8.2008569158       17.0180725129
 Hg        26.7970726044       16.3388136676       26.6551779826
 Hg        26.7199903274       10.2555169249       20.5592407226
 Hg        23.2971026442       20.5050634626        7.5033644731
 Hg        26.5624797611       20.2252745783       16.7252228308
 Hg        26.6780399214       13.4601153421       16.7305593415
 Hg        20.1781853654       20.2000061181       10.3594754234
 Hg        29.5037910251       23.2226430085       16.3668202465
 Hg        20.2681244556       13.4794402775       23.4337821601
 Hg        16.8117593266       13.5956453576       20.0766237301
 Hg        29.8547998416       17.1037443711       16.9325816564
 Hg        10.4391731381       28.1719857703       13.3525430618
 Hg        14.2554967676       29.6489290209       13.8509084325
 Hg         6.5711027328       23.4843241378       15.8865910645
 Hg        13.3878870161       26.6863776580       16.7258307317
 Hg        16.9557258529       29.8608207570       16.8410276052
 Hg        20.1462431653       16.8627699342       20.1076831545
 Hg        23.5075923230       20.3142534632       13.3863573110
 Hg         7.0514322938       19.7260304534       17.0663553514
 Hg        10.3472440758       23.4681120577       16.6929463459
 Hg        16.6294279743       29.7151649196       23.5322662983
 Hg         7.4805295502       20.5187650451       23.1670384002
 Hg         9.9316519232       23.7558014908       23.7029505209
 Hg        13.2003171463       26.9723811419       23.6212348647
 Hg        19.7515690779       29.1368163158       26.4726112997
 Hg        29.6907754386       14.4016568949       13.9045054833
 Hg        16.7954156965       10.3210699080       23.4853202496
 Hg        20.0982389874       13.3431042184       10.1875036704
 Hg        16.7608258722       20.2093306651       13.4831906493
 Hg        20.4735700845       23.3186722074        7.5010329249
 Hg        26.9676659581       18.5019003056        7.0549585013
 Hg         7.0537626446       18.4094196847       26.7262657208
 Hg        10.2375429724       20.6376299998       26.7186294982
 Hg        13.2265920259       23.7890087136       26.8652682176
 Hg        16.3243467356       26.8250850900       26.6345545582
 Hg        13.1849196671       13.1874941704        9.8918122297
 Hg        16.8001915940       16.8349699717       16.7352480339
 Hg        10.4213551760       17.1938546756       29.0331048278
 Hg        13.3427881368       20.3463403963       29.6116222957
 Hg        16.3216807287       23.2586689066       29.4561260733
 Hg        16.8795046938       23.5389990937       10.1491397894
 Hg        23.7720958976       23.8085141936        9.9415468321
 Hg        20.2780708773       23.5304999314       13.3881879427
 Hg        13.5364561868        7.2646365044       16.4157547099
 Hg        26.6548613008       23.5620821357       20.1221464698
 Hg        23.7466624603        9.9991596063       23.6675713690
 Hg        26.9269968777       13.2587686748       23.6345184093
 Hg        16.5716483681        7.2343366689       13.3543562107
 Hg        23.4822184975       16.7091364965       23.4476008929
 Hg        23.7482143095       27.0069050775       13.2092233695
 Hg        26.6336984757       16.8611469226       13.3808632815
 Hg        16.5008425691       13.6887030014        7.4666907809
 Hg        20.5121155449        7.5039486143       23.1185786161
 Hg        19.7562301577        7.1060086813       17.0238483866
 Hg        10.2019428261       30.0761495552       18.4680537937
 Hg        26.6235775281       20.1648948478       23.4498621580
 Hg        29.6836162666       22.6342410044       22.9289894645
 Hg        20.1726145936       10.1555385381       13.3970354136
 Hg        29.5035017740       13.8167938317       20.4943216202
 Hg        13.7527439048       29.5666328609       20.5007835734
 Hg        10.1774368997       18.5470911810        6.9845187606
 Hg         7.5230574834       23.3601867395       20.2569481683
 Hg        10.1968429317       26.7149320963       20.5619500211
 Hg        13.4246743268       16.6796492587       13.3670703273
 Hg        13.9357251860       22.9439173859        7.4813610928
 Hg        26.9494816397       23.7716213610       13.2203830900
 Hg        29.2757736467       19.6716192407       26.3403817608
 Hg        13.3095993840       20.0964442156       10.1787332834
 Hg        29.8470877651       19.9243172635       19.9161599866
 Hg        16.7841284550       16.8030442424       10.3896493906
 Hg        19.7616363092        7.8425721267       10.3946106063
 Hg        10.2544307437       10.1464377071       16.2928356616
 Hg         8.1113327188       26.7533516722       17.0284999072
 Hg        17.1244344502       10.2326024309       28.7559974392
 Hg        18.5080060176       26.8414013788       29.8421015644
 Hg        30.0758437668       10.3250467830       18.4548108178
 Te        18.3330342259       25.3091395874       25.0677258699
 Te        21.7046273318        8.7301212069       18.3564734547
 Te        21.9540927348       25.2573276420       14.9523864565
 Te        22.0457994003        8.2621812059       25.2563271563
 Te         8.6809012243       18.4709965884       21.7058083641
 Te        28.2658821204       18.5321096617       15.1040004467
 Te        28.2610282847       15.0904095135       11.6571178616
 Te        18.5326933733       15.1398173450       21.7779816998
 Te        15.1240920192       21.8205446536       11.7100585659
 Te        15.2093478969       18.5074311750        8.6355752900
 Te        25.3469760852       28.7404378470       14.8632325074
 Te        11.9837471113       15.0264777682       28.5107860273
 Te         8.2251837412       25.3373071190       22.0003103437
 Te        11.7437021387       15.1555548900       21.7595702785
 Te        25.3813988683       22.1121456124        8.2054534965
 Te        21.5953051265       25.3342945394       28.5179144331
 Te        25.0399473397       21.8518216500       21.7513363173
 Te        14.9781318648       25.2587128000       21.8573053827
 Te        18.3997788386       28.4066661184       21.7154152963
 Te        14.9111409342       11.5995466824        8.1892117414
 Te         8.6833025314       21.6963013754       18.3508125222
 Te         8.0466215354       28.6271686177       18.9684502404
 Te        21.9605538291       21.9890676076       11.6505465174
 Te        22.0741989039       25.4067709462        8.2063963625
 Te        18.4845513916       28.3053546436       15.0654266431
 Te        18.4125368009       15.1479823194       15.0271637880
 Te        14.9933919593       15.0082063584       11.6468733720
 Te        18.4696031810       18.5017758380       18.4130328224
 Te        11.7098547727       15.0088262736       14.9469644218
 Te        22.1661744424       28.7443576955       11.5922155891
 Te        21.9455638987        8.4100854305       11.9274014406
 Te        15.0010956402       21.9953242345       25.1576710077
 Te        21.7142304818       11.9364409531       15.0778125115
 Te         8.4717174669       19.0837056760       28.8549019193
 Te         8.5886419128       15.1989998661       18.3659161021
 Te        15.1016536664       21.8480862088       18.4675526789
 Te        18.4295283766       25.0734510515       18.4116233816
 Te        25.2037066159       15.0249840914       21.8786880834
 Te        25.3588957570       14.9363633607       28.6450096807
 Te        15.1148388424        8.6553790799       18.3539051710
 Te        18.4856346772       18.5113367458       11.9057889469
 Te        25.0374798402       28.4154548161       21.9202585094
 Te        14.8093754347        8.2824095126       11.5343365662
 Te        21.7025540669       18.5122361620       28.2607053546
 Te        11.6995753681       21.9707204733       21.8901825413
 Te        28.9626708329       12.0896758643       15.4208345797
 Te        28.6399384476       28.8851376578       17.9174479427
 Te        25.2066154729       21.6039283652       28.6024236353
 Te        25.0658091320       15.1704963236       15.0941863360
 Te        18.3976349173       21.8547128986       21.7953734363
 Te         8.5513762890       25.0712746478       14.9272009125
 Te        25.1590549950       25.3618923368       24.8530214033
 Te        15.0642287029       18.5487201646       21.7634632351
 Te        11.6774068070       18.3478963531       11.7368243440
 Te        18.4363066606       11.9336448315       18.3964165305
 Te        17.9246825638        8.0572832334        8.3919736494
 Te        11.7219424681       25.2024411293       18.5095565338
 Te        25.1961990186       18.3547474857       25.1488961759
 Te        15.1115063357       18.4271254165       15.0166311413
 Te        18.4203562727       21.8430045022       28.2329076341
 Te        15.1439126984       28.3494376239       18.3872843222
 Te        21.7856828208       21.8731128502       25.1453901984
 Te        21.9161580781       28.6096807141       24.9092684932
 Te        18.3537750252       11.7101993893       11.7453560983
 Te        18.5090541997       21.8806283658       15.0333971187
 Te        11.7091862987        8.6847979413       21.8273132958
 Te        11.6755655293       21.6067442705        8.2957502335
 Te        18.5948667698       11.7810955284       25.1566040483
 Te        25.0251059977       18.5113144034       18.4263529714
 Te        11.5852900915       28.7307209770       21.9477978546
 Te        28.3032977836       21.7882255078       18.4511491195
 Te        18.6309032478       25.2222218356       11.6666633732
 Te         8.5527902973        7.8764098711       17.7530099796
 Te        15.3940567852       25.2034320658        8.1926143404
 Te         8.0412259756       17.8755612213        8.3911396019
 Te         8.2699034760       11.5598186398       14.8483320101
 Te        28.7066047770       11.6580668447       21.9733714815
 Te        25.2185983590       21.9940007851       14.9671068801
 Te         8.3882560442       15.3522488547       25.2424508007
 Te        28.7228655880       22.2131902461       11.6126100849
 Te        21.7131730385       18.4983116918        8.5687655900
 Te        18.4954267165       15.2265841401        8.6417151101
 Te        15.0113519272       11.9015139667       28.3236508472
 Te         8.2322785326       22.0486486289       25.2979507676
 Te        15.1538055205       18.5540647606       28.3107381171
 Te        15.1318739969       15.2481512166       24.9718096966
 Te         8.2733667905       11.7429630317       21.5152607438
 Te        11.9745165433       28.9407741272       15.3881433626
 Te        18.4284931928        8.6770635595       21.6901762609
 Te        15.4875481208        8.0551481649       24.9050591189
 Te         8.3874340784       21.9462252906       11.8844385012
 Te        11.5523052179       25.4120515307       25.2820673470
 Te        25.3781668002       11.5974821028       25.3037302834
 Te        11.9159189879       18.4371911187       18.4036147011
 Te        11.5885515029       11.5731577825       11.5292190599
 Te        25.2162672544       18.6734105661       11.6762489604
 Te        14.8759599148       25.4140183077       28.6130300912
 Te        28.2658957017       18.4873917489       21.7474539708
 Te        12.0414768567       11.7788413210       25.2515380723
 Te        25.3974405455       25.4278643043       11.5581940885
 Te        29.0403011609       17.8401661699       28.3679286612
 Te        21.8502353623       18.5549926593       15.0338259853
 Te        21.9466782784       11.7379212104       21.8872676000
 Te        18.4132901723        8.5917939160       15.0902652328
 Te        11.6351590083        8.2803439595       14.7265860060
 Te        11.6033838058       22.2093112405       28.5987197861
 Te        25.3487860023        8.2813644246       22.0044995108
 Te        21.9412971021       15.0234590721       25.1802571507
 Te        15.1200786162       25.1017779549       15.0762196151
 Te        21.8291665377       18.4778191631       21.8142681616
 Te        25.0797354973        8.6285544849       14.9231042249
 Te        18.4029635178       15.2835791073       28.2014577874
 Te        15.0096719997       11.7564908165       14.9500480024
 Te         8.2655272594       14.7758311611       11.5580360285
 Te        21.6944884141       25.0808420929       21.7423987220
 Te        25.1826828951       11.6702133715       11.9685369880
 Te        21.8063957601       21.8549220016       18.3512103242
 Te        19.1584558889       29.0877334744        8.4798217426
 Te        11.7516196360       11.7655432433       18.2768500809
 Te        25.1788745715       25.2328921499       18.3356418342
 Te        21.8236584504       15.1534881958       18.4775563144
 Te         8.5645347653       18.4497599263       15.0905238258
 Te        11.8995772134       21.7273717133       15.0707954138
 Te        21.8110602968       15.1659415508       11.7180854617
 Te        28.2482881412       21.9392547461       25.1729731961
 Te        28.3100080759       15.2419041229       18.4041818299
 Te        25.2023595168       11.7843140778       18.5175128816
 Te        19.0602775287        8.3516959843       28.7878303357
 Te        21.6974714153       28.3000045543       18.4491399285
 Te        18.4602250370       18.5492580327       24.9606602742
 Te        28.6485875880        8.1536992059       18.9544223082
 Te        28.6881279143       14.8162246238       25.2544583610
 Te        28.6956969530       25.3840823841       14.8996759466
 Te        11.8173388961       18.6255165216       25.2095942840
 Te        28.9398816779       24.9434913353       21.4215424161
 Te        18.4732720305       21.7242404915        8.5631317574
 Te        17.8526284966       28.9686520979       28.4133711538
 Te        14.7533010896       28.7072410070       25.2606854881
 Te        11.6369338413       25.1884892045       11.9428343464
 Te        15.0549445305       28.2639505244       11.6113339683
 Te        15.1450963153       11.8905340120       21.7502426842
 Te        22.0856786360       11.6587781709       28.6422086232
 Te        25.2011131102       15.4226920351        8.2093696613
 Te        21.6149524561       11.6969834096        8.3185768473
 Te        29.0712491167       19.2000539517        8.4848235222
 Te        11.5962768839       14.9025155194        8.1774015100
 Te        15.1058348543       15.1378211937       18.3697655218
 Cl        25.0414539507       18.2429792764        5.6967810607
 Cl        31.1845010715       15.4237163050       21.6517449933
 Cl        21.7447032125        5.8513067537       21.5220381031
 Cl        25.0101447299       18.8096924735       31.1501791245
 Cl        18.4656666784        5.9870661287       11.8648256460
 Cl        31.4434845793       18.5130760911       18.4275664061
 Cl         6.1301410425       24.9896211191       18.1206085728
 Cl        12.0991359480       31.4913088466       18.3834109736
 Cl        15.3586391979        5.7565002842       15.2374861626
 Cl        31.0982427058       18.5080897865       12.0031358050
 Cl        11.7308021267        8.9644383712       28.0566559713
 Cl         5.6682583336       18.2511577935       24.8084261586
 Cl        21.5195301517       31.8290925794       20.9204948735
 Cl        15.4501800423       31.4315743223       15.1827317444
 Cl        18.2070302215       11.9860233249       30.7390557978
 Cl        15.3215573166        5.5411935894       21.4532977385
 Cl        18.6747839687       24.9296519437       31.2310252644
 Cl        18.6461308913       18.5858424156       31.4222235053
 Cl         5.7491234108       15.3574878059       15.1469552229
 Cl        12.1063930799       18.6944152566        5.6077919445
 Cl        25.0012206360       30.8324899932       18.7322060658
 Cl        18.4797900178       18.4892479054        5.4283531544
 Cl        18.2198057452       25.0574520630        5.6880543257
 Cl        31.1842481985       21.6057672139       15.2224927237
 Cl        18.3919879382       31.5037995550       18.2738882320
 Cl        28.0674082360        8.9571395435       11.6456124148
 Cl         5.8169952118       21.7032591975       21.5266029372
 Cl        31.4823336204       12.2325852003       18.4189833949
 Cl        18.4911394880        5.5004331505       18.5930701106
 Cl         5.1380928956       21.5377973904       15.9158414051
 Cl        18.4768226755        5.5136591085       24.7198292474
 Cl        21.7091055658       21.7370852891       31.1720188191
 Cl        15.2166052271       21.6159748921       31.1323044174
 Cl        25.0250629311        6.2038460739       18.1171864371
 Cl        18.7204095913       12.1345219237        5.6278615261
 Cl         5.4606487093       18.4133851431       18.5981934314
 Cl        18.4407870577       31.0233156126       24.9959081727
 Cl         5.9677455035       18.4720772310       11.8066346804
 Cl         5.7347885197       11.8751707865       18.7386520600
 Cl        15.3486125523       31.2395079238       21.6546189444
 Cl        15.3177373807       15.3229697501        5.7495154373
 Cl        18.4914505768       31.1275396999       12.0114117176
 Cl        28.0409391781       28.0759842860       25.1961107810
 Cl        21.6153282746       31.1726670633       15.2735165217
 Cl        31.4404206421       15.5775544354       15.2741123488
 Cl        31.0796928098       18.5155133007       24.8595507683
 Cl        31.4363513421       21.4483446638       21.5739735568
 Cl        31.4732704556       24.8057149300       18.4413142129
 Cl        15.9972625850       15.4373313682       31.7397638310
 Cl        15.3049366040       21.6575327727        5.6490663522
 Cl        11.8936300404       18.5127822871       30.9130503338
 Cl        21.6099092447       15.2525435446       31.0575767018
 Cl         5.7129061186       15.2596686013       21.6700571304
 Cl        12.1159005169        5.8371231955       18.3760168510
 Cl        21.6571290795       15.3257351290        5.6652694427
 Cl        21.5793401032        5.1849031543       15.9140032272
 Cl        21.7236548665       21.7448079590        5.7611273860
 Cl         8.8350919550       27.9986641486       11.6291466764
