     381
 i =       47, E =     -9305.8252495870
 Hg        16.7815753771       23.4174910764       16.7476029959
 Hg        20.1385717890       26.5888058712       16.6743703614
 Hg        23.2841136473       29.5119678950       16.4665746277
 Hg        18.4642053319       27.0050700980        7.0322081351
 Hg         7.4102056361       13.7229912131       16.2568007273
 Hg        10.3090773665       16.7960144760       16.6587743695
 Hg        13.5886680024       20.0937301654       16.7761739497
 Hg        20.0643285824       23.3820530433       20.0430256201
 Hg        23.4624687940       26.6644749484       20.1428487072
 Hg        26.7512373203       28.8823208081       19.8319431117
 Hg        13.2776961989       10.0300196066       13.1745054884
 Hg         7.0996597964        9.9474520175       18.4679221874
 Hg        10.1658607822       13.4223852826       19.9967116501
 Hg        13.5015174548       16.7556071561       20.1246738169
 Hg        16.7856214490       20.1551777562       20.0997476909
 Hg        23.4118910429       23.5368254269       23.4539187889
 Hg        28.2367924196       26.4899767630       23.4559663046
 Hg        16.6803037246       13.4533768006       13.3574181313
 Hg        10.1479409917       16.3140970097       10.1581381182
 Hg        10.2396977949       11.2842481345       23.2955156297
 Hg        13.4313759603       13.5228008687       23.4117107055
 Hg        16.8296730479       16.8906714161       23.2865457654
 Hg        20.1781965992       20.2476323359       23.3899947438
 Hg        25.6489123010       23.4052720058       26.6507012605
 Hg        20.1375122826       10.4317430784       20.1384045798
 Hg        13.4549989072        8.7677267541       26.4559526255
 Hg        16.7514375878       13.4963978861       26.5426025947
 Hg        20.1703057073       16.8235950906       26.4731693771
 Hg        23.5280848442       20.1022503335       26.6991737248
 Hg        23.4861814528       13.4691196021       20.1914602547
 Hg        29.6148210554       16.6638730551       23.4588840358
 Hg        23.3837039781       16.8492931955       16.7603226696
 Hg        23.5205743724        6.5957741621       15.8985260054
 Hg        23.4852902333       23.5358493932       16.6513082303
 Hg        20.3265929611       13.6141432883       29.3633655108
 Hg        23.2305957425       16.4546676259       29.3970586430
 Hg        26.9572356357       18.5324853876       29.8099931938
 Hg        20.1895444439       16.7939998523       13.4740450424
 Hg        19.9485598852       16.9483300141        6.9147707348
 Hg        10.6146458701        7.5681072594       19.5302086310
 Hg        13.6720511899       16.4958308479        7.4414250399
 Hg        22.9620936643       10.6058067643       10.4898232160
 Hg        16.9292199954       19.9606841736        6.9022888011
 Hg        30.0845338411       26.7346440261       18.4162283946
 Hg        23.7602314098       13.2389828490       26.9178277384
 Hg        29.6266496467       20.3572874369       13.4090660506
 Hg        13.9435028115        7.2849783475       22.6147720972
 Hg        13.4413704398       13.4714101780       16.6229327826
 Hg        26.8447746329       20.7155502781       10.1809648579
 Hg        26.5749185643       16.7989408598       20.1363544852
 Hg        16.7560191758       10.3254025193       16.6738141835
 Hg        18.5326669953        6.8980336764       26.6490065692
 Hg        20.6577154258       26.8605704985       10.1810725528
 Hg        20.1231255829       20.1617836258       16.7039695018
 Hg        16.8933261970        7.1059913893       19.8667994368
 Hg        20.6586972908       10.2578438247       26.6832765515
 Hg        10.5903200910       22.9721998028       10.4543071595
 Hg        13.5962472511       25.6651499264       10.1405022864
 Hg        17.3470103317       29.3756312852       10.5142289858
 Hg         7.8340817986       19.7704450543       10.3193306598
 Hg        13.4503141358       23.4619493978       13.3802751333
 Hg        16.8141259959       26.6840663668       13.3399447410
 Hg        20.3865362333       29.6857982140       13.4468637229
 Hg        16.3645023464       10.1565899141       10.1499522346
 Hg         7.2594302201       16.6549528809       13.2820183809
 Hg        10.1200331367       20.2074066366       13.3588661779
 Hg        16.7486731053       26.6627682031       20.1351370796
 Hg        19.7476258757       29.9238143851       19.7696771873
 Hg         7.0246223319       16.8747643825       20.0385770592
 Hg        10.4185053647       20.1652342620       20.1253557797
 Hg        13.4269503485       23.5149111011       20.1998877115
 Hg        20.1711762101       26.8714869857       23.4367871786
 Hg        23.4882520841       30.4489246678       20.9136875488
 Hg         7.5503151647       13.9693150364       23.0108634059
 Hg        10.2098786097       16.8867549676       23.5987639593
 Hg        13.4232087512       20.3025417218       23.4600141653
 Hg        16.6729494219       23.5616292932       23.4487880319
 Hg        22.9410482034       26.4112008248       26.3382714457
 Hg        23.3662889409       20.1723753688       20.0793219683
 Hg        22.9530338933       13.9588253873        7.4668080653
 Hg        23.4440193873       13.4870799876       13.3862260881
 Hg        20.0829711717       13.6275898566       16.7812747748
 Hg        10.5602427749       13.9898415465       26.3110604874
 Hg        13.4427026175       16.7727071714       26.7691767104
 Hg        16.7127560299       20.1990758658       26.5532543748
 Hg        20.0494332517       23.6964192498       26.6964288980
 Hg        28.2608561243       10.5443477872       13.3868736728
 Hg        15.9831662441       13.4918350896       30.3362317107
 Hg        17.1261979052       17.2729154890       29.8504699746
 Hg        20.0167690934       20.1901377461       29.8631172321
 Hg        22.9836474685       23.1008498496       29.3328307543
 Hg        23.3937760410        7.5551946105       20.2506257465
 Hg        23.4805024765       10.3807685325       16.6958544829
 Hg        26.7117031852       26.7869086336       16.3299434982
 Hg        13.4267106851       10.2782060914       20.0656845324
 Hg         9.9976170638       13.1989448273       13.1806719395
 Hg        25.6425324179       13.6164511467       10.1537311047
 Hg        29.3259451149       17.3665095377       10.4999970602
 Hg        23.5465385982       16.9096221079       10.1411143917
 Hg        18.6075995841       10.1861711388        6.9786070850
 Hg        26.7843662236        8.1712747972       17.0183071983
 Hg        26.8128926309       16.3388599015       26.6662698220
 Hg        26.7256736696       10.2458347248       20.5566162067
 Hg        23.3081229760       20.5142168551        7.4774765837
 Hg        26.5773843867       20.2244602190       16.7202960476
 Hg        26.7000253761       13.4513090128       16.7209358191
 Hg        20.1833757008       20.2045791695       10.3337997764
 Hg        29.5263449227       23.2319203609       16.3560147496
 Hg        20.2655916185       13.4707815054       23.4439543917
 Hg        16.8046252380       13.5839860854       20.0816968851
 Hg        29.8739887546       17.1024458744       16.9356317143
 Hg        10.4301958955       28.2132387299       13.3608291068
 Hg        14.2618459770       29.6774707077       13.8372638914
 Hg         6.5318380286       23.4899417613       15.9063646012
 Hg        13.3761725924       26.7070265673       16.7144189979
 Hg        16.9537221681       29.8765237558       16.8430844982
 Hg        20.1498574636       16.8606952049       20.1113003736
 Hg        23.5181968595       20.3132928551       13.3746537042
 Hg         7.0233515711       19.7231129075       17.0703713616
 Hg        10.3172890131       23.4816392217       16.6841215206
 Hg        16.6254121878       29.7280673990       23.5389450150
 Hg         7.4529668575       20.5305792563       23.1750620790
 Hg         9.9279465742       23.7576243992       23.7027736990
 Hg        13.1986870919       26.9727137251       23.6214468793
 Hg        19.7519392910       29.1581303694       26.4865579605
 Hg        29.7190397288       14.4061106719       13.8936379593
 Hg        16.7825984324       10.2988195053       23.4974316374
 Hg        20.1064400739       13.3319428653       10.1638175526
 Hg        16.7583095122       20.2135371178       13.4707446907
 Hg        20.4837657500       23.3297435390        7.4742133208
 Hg        26.9909989856       18.5073660743        7.0370427355
 Hg         7.0251357468       18.4169689012       26.7352260424
 Hg        10.2210114858       20.6333758951       26.7289708408
 Hg        13.2211719561       23.7907857101       26.8685383649
 Hg        16.3256847982       26.8364251740       26.6498338556
 Hg        13.1848062306       13.1856003166        9.8895166663
 Hg        16.7957483718       16.8315168311       16.7321111722
 Hg        10.4040994536       17.1931007093       29.0530455278
 Hg        13.3357524222       20.3503689590       29.6249492735
 Hg        16.3126699790       23.2660961740       29.4770414097
 Hg        16.8732239483       23.5487197564       10.1311084316
 Hg        23.7712758966       23.8066694279        9.9420583208
 Hg        20.2786084787       23.5391994134       13.3780221795
 Hg        13.5332879772        7.2489076538       16.4068722983
 Hg        26.6811068410       23.5725751196       20.1313507350
 Hg        23.7462299555        9.9991115732       23.6688077211
 Hg        26.9288299000       13.2548487597       23.6360778960
 Hg        16.5650230945        7.2201172620       13.3471356121
 Hg        23.4910107548       16.7097348921       23.4582306223
 Hg        23.7547552781       27.0102183851       13.2076123568
 Hg        26.6535149437       16.8503383004       13.3636154489
 Hg        16.4927201048       13.6798742648        7.4402816034
 Hg        20.5218494049        7.4850276690       23.1299287922
 Hg        19.7573417866        7.0842143806       17.0226319758
 Hg        10.1773533662       30.0960089376       18.4788104970
 Hg        26.6416733826       20.1736056362       23.4660705242
 Hg        29.7132504124       22.6269447873       22.9408720126
 Hg        20.1837261781       10.1423910389       13.3829467481
 Hg        29.5245451624       13.8066282671       20.5041477313
 Hg        13.7449230585       29.5853485655       20.5119292416
 Hg        10.1598317956       18.5351450366        6.9557282591
 Hg         7.5030389529       23.3661589397       20.2638968655
 Hg        10.1863970821       26.7217979484       20.5571558040
 Hg        13.4166889143       16.6802509323       13.3571549738
 Hg        13.9337617564       22.9549412448        7.4530613303
 Hg        26.9526010215       23.7758182652       13.2188331489
 Hg        29.3044429184       19.6678132508       26.3515830648
 Hg        13.2978793063       20.1048007768       10.1556358088
 Hg        29.8681439243       19.9246358628       19.9121641225
 Hg        16.7801452009       16.8010033505       10.3710278655
 Hg        19.7631953385        7.8227032814       10.3807151530
 Hg        10.2437731204       10.1337692956       16.2919476480
 Hg         8.0815093226       26.7655589455       17.0270574058
 Hg        17.1213861756       10.2193745299       28.7844590902
 Hg        18.4949761024       26.8552187059       29.8656634789
 Hg        30.0975409468       10.2988535824       18.4673815153
 Te        18.3337428340       25.3196380785       25.0808236029
 Te        21.7098700905        8.7146543815       18.3571252961
 Te        21.9615576808       25.2668287760       14.9451033821
 Te        22.0583563463        8.2500432905       25.2728040335
 Te         8.6602671053       18.4747019591       21.7154589794
 Te        28.2831783133       18.5291243926       15.0957491837
 Te        28.2875737656       15.0794316086       11.6356714541
 Te        18.5308912273       15.1331942480       21.7836534717
 Te        15.1162661483       21.8268236374       11.6952466623
 Te        15.2011467390       18.5058621309        8.6146127287
 Te        25.3613470150       28.7580172093       14.8520946588
 Te        11.9648669045       15.0145986514       28.5326016332
 Te         8.2083260014       25.3500984700       22.0107296930
 Te        11.7296632373       15.1497138733       21.7667328373
 Te        25.3963366233       22.1261906553        8.1910356257
 Te        21.6005068437       25.3462797046       28.5443030907
 Te        25.0551607297       21.8622945056       21.7617345196
 Te        14.9744838527       25.2668330063       21.8641864443
 Te        18.4078445412       28.4254858459       21.7243900403
 Te        14.8989242845       11.5857046202        8.1727722042
 Te         8.6643250298       21.6994928617       18.3519197278
 Te         8.0182776838       28.6378123496       18.9810055221
 Te        21.9674403307       21.9952657402       11.6393146010
 Te        22.0890156021       25.4214027647        8.1925047551
 Te        18.4821717482       28.3236653803       15.0537982610
 Te        18.4122828744       15.1422043017       15.0191205289
 Te        14.9842895319       15.0011543945       11.6331974040
 Te        18.4694171106       18.5021659996       18.4120115720
 Te        11.6985072158       15.0044243071       14.9395811223
 Te        22.1796133198       28.7592763770       11.5808411229
 Te        21.9590100872        8.3906225749       11.9093248386
 Te        14.9933160711       21.9983395475       25.1704205552
 Te        21.7237010454       11.9233460721       15.0718244565
 Te         8.4514281717       19.0931253462       28.8691206059
 Te         8.5699041455       15.1921402669       18.3613708294
 Te        15.0938729725       21.8554286944       18.4661950211
 Te        18.4279859333       25.0852160160       18.4114498784
 Te        25.2122067481       15.0196981777       21.8845877915
 Te        25.3753590860       14.9232431096       28.6597514013
 Te        15.1063368930        8.6403517429       18.3536016658
 Te        18.4870470157       18.5132947523       11.8901186898
 Te        25.0442767124       28.4540823137       21.9273792545
 Te        14.8004724838        8.2687160360       11.5189785957
 Te        21.7115357679       18.5115858081       28.2793311865
 Te        11.6885293230       21.9802115494       21.8965853940
 Te        29.0043334215       12.0917774662       15.4291108215
 Te        28.6522271771       28.9097314494       17.9036653711
 Te        25.2256022098       21.6052766981       28.6275083934
 Te        25.0785548611       15.1608859839       15.0824246786
 Te        18.3973954984       21.8603305312       21.8021334667
 Te         8.5100961741       25.0764844970       14.9180949650
 Te        25.1766788027       25.3818600333       24.8713427484
 Te        15.0561327183       18.5474360181       21.7681519364
 Te        11.6660996294       18.3513052880       11.7236684568
 Te        18.4343370993       11.9212736244       18.3967842667
 Te        17.9152703703        8.0391389712        8.3756679613
 Te        11.7095033792       25.2136831984       18.5037103593
 Te        25.2095433116       18.3541798423       25.1626352549
 Te        15.1049042284       18.4283392241       15.0088371790
 Te        18.4160907609       21.8496871717       28.2480537221
 Te        15.1371780889       28.3636784899       18.3919846737
 Te        21.7935567305       21.8799966881       25.1577866651
 Te        21.9278859159       28.6304598962       24.9260559431
 Te        18.3565486591       11.7008600968       11.7323073147
 Te        18.5086256176       21.8881511771       15.0258931406
 Te        11.6883725665        8.6608761311       21.8340875344
 Te        11.6645272190       21.6136705563        8.2623675653
 Te        18.5896731204       11.7687079591       25.1674410561
 Te        25.0355938470       18.5110426488       18.4268538042
 Te        11.5706423154       28.7421761259       21.9593865269
 Te        28.3213036226       21.7939052271       18.4456589295
 Te        18.6308463513       25.2339421267       11.6539642941
 Te         8.5408345574        7.8512470381       17.7365781680
 Te        15.3952059418       25.2208867988        8.1664286303
 Te         8.0204929205       17.8625085103        8.3733795978
 Te         8.2545903909       11.5454796733       14.8357760140
 Te        28.7195450800       11.6420168039       21.9849548927
 Te        25.2276700055       21.9995625915       14.9610521172
 Te         8.3590487352       15.3450791960       25.2553681738
 Te        28.7391671651       22.2264722635       11.6018924070
 Te        21.7232456799       18.4986634545        8.5467121164
 Te        18.4931277599       15.2196226014        8.6215309472
 Te        15.0012470572       11.8958647480       28.3636223102
 Te         8.2148739967       22.0631942051       25.3110655075
 Te        15.1448856877       18.5460335787       28.3320104933
 Te        15.1255778287       15.2383796292       24.9864708937
 Te         8.2487323021       11.7267676368       21.5145301157
 Te        11.9780599903       28.9849171424       15.3939913003
 Te        18.4301693883        8.6585363139       21.6983627764
 Te        15.4906734921        8.0118359953       24.9033834855
 Te         8.3659322354       21.9603016476       11.8605873483
 Te        11.5367168244       25.4266380167       25.2956750443
 Te        25.3920721386       11.5828564887       25.3189538784
 Te        11.9012304297       18.4374387813       18.4020841526
 Te        11.5721091677       11.5583308845       11.5132518409
 Te        25.2300173515       18.6726212834       11.6621270959
 Te        14.8614934827       25.4261267845       28.6289257336
 Te        28.2840829727       18.4906060762       21.7552648771
 Te        12.0232803842       11.7620712724       25.2704426062
 Te        25.4128950063       25.4424225795       11.5418677143
 Te        29.0691500904       17.8240765347       28.3798869939
 Te        21.8573747382       18.5545133810       15.0243575146
 Te        21.9523236343       11.7296657235       21.8938881805
 Te        18.4172243788        8.5751115979       15.0795811521
 Te        11.6242049084        8.2635099074       14.7136097887
 Te        11.5889943448       22.2172670740       28.6121310002
 Te        25.3592051549        8.2667041821       22.0173589476
 Te        21.9478582647       15.0160161447       25.1908470800
 Te        15.1102281944       25.1154565890       15.0630336392
 Te        21.8361071599       18.4787468448       21.8221769142
 Te        25.0878180761        8.5890208899       14.9156281890
 Te        18.4039022529       15.2792366626       28.2194684033
 Te        15.0042131766       11.7457022865       14.9420320916
 Te         8.2518988579       14.7671334676       11.5455834143
 Te        21.7047589259       25.0944646910       21.7477892145
 Te        25.1994619519       11.6501999322       11.9497613567
 Te        21.8137052151       21.8607192030       18.3517470981
 Te        19.1751959492       29.1119989840        8.4664788876
 Te        11.7389863026       11.7534585063       18.2759527848
 Te        25.1929925308       25.2443887141       18.3408120497
 Te        21.8305246265       15.1477882930       18.4764865385
 Te         8.5445021999       18.4594488218       15.0807835521
 Te        11.8842387064       21.7384959103       15.0631133181
 Te        21.8176377340       15.1580103256       11.7031023127
 Te        28.2744275163       21.9474088086       25.1938693585
 Te        28.3264623708       15.2357381829       18.4091800247
 Te        25.2149234682       11.7737929504       18.5127885473
 Te        19.0696408381        8.3384990524       28.8127310924
 Te        21.7017829370       28.3149203560       18.4444327165
 Te        18.4589574104       18.5483772747       24.9735318296
 Te        28.6595410639        8.1250696558       18.9701864442
 Te        28.7050260874       14.8022951881       25.2641385484
 Te        28.7105726068       25.3999062218       14.8877753969
 Te        11.8052356213       18.6235749030       25.2202648725
 Te        28.9844240057       24.9412735130       21.4157893303
 Te        18.4750953957       21.7332047605        8.5400753021
 Te        17.8405526944       28.9881216916       28.4284026918
 Te        14.7428662176       28.7195028224       25.2714821419
 Te        11.6166961377       25.2055875276       11.9213558395
 Te        15.0461226455       28.2896710170       11.5871353158
 Te        15.1333357197       11.8780353936       21.7600496290
 Te        22.0967331220       11.6460049993       28.6593522390
 Te        25.2202578679       15.4215371051        8.1835429534
 Te        21.6227465256       11.6854238845        8.2873092818
 Te        29.0973331117       19.2153084597        8.4734640736
 Te        11.5828987803       14.8887504786        8.1614897148
 Te        15.0980041520       15.1301560508       18.3684877092
 Cl        25.0598011387       18.2398728138        5.6850158269
 Cl        31.2051756130       15.4169059479       21.6582839880
 Cl        21.7507546111        5.8297855964       21.5315562631
 Cl        25.0270952862       18.8087713871       31.1573932355
 Cl        18.4606024070        5.9744998098       11.8501048992
 Cl        31.4682393028       18.5119357665       18.4272417415
 Cl         6.1058687827       25.0056388439       18.1333955141
 Cl        12.0783463775       31.5081862063       18.3943576658
 Cl        15.3564799010        5.7395994346       15.2298713645
 Cl        31.1188358032       18.5167410017       11.9915778210
 Cl        11.7474963115        8.9557917751       28.0760211185
 Cl         5.6497489049       18.2504997926       24.8093872795
 Cl        21.5251087648       31.8664737947       20.8908804836
 Cl        15.4524689501       31.4538004121       15.1813679169
 Cl        18.2191619143       11.9690841281       30.7609151154
 Cl        15.3201674188        5.5185074920       21.4492624964
 Cl        18.6716568837       24.9349378177       31.2434322575
 Cl        18.6491649982       18.5917038965       31.4454517282
 Cl         5.7289551096       15.3518729504       15.1363300036
 Cl        12.0961501943       18.6934579570        5.5886263935
 Cl        25.0166507855       30.8571747511       18.7206279037
 Cl        18.4805101204       18.4893669358        5.4030248245
 Cl        18.2196047927       25.0727838279        5.6751196431
 Cl        31.2061741894       21.6115874748       15.2153984959
 Cl        18.3909400145       31.5254708840       18.2718535888
 Cl        28.0762593490        8.9367678832       11.6679260068
 Cl         5.7909328678       21.7131792485       21.5327979312
 Cl        31.5027725694       12.2088790327       18.4305661687
 Cl        18.4871005612        5.4780931332       18.5882624179
 Cl         5.0984476793       21.5429765379       15.9466791657
 Cl        18.4817789733        5.4934824403       24.7387139317
 Cl        21.7150419628       21.7365716080       31.1897900172
 Cl        15.2055557732       21.6217320207       31.1509473457
 Cl        25.0404030484        6.1816578443       18.1316179488
 Cl        18.7232813024       12.1269320739        5.6099621224
 Cl         5.4354606391       18.4090990923       18.6005336310
 Cl        18.4357705775       31.0380775856       25.0100180200
 Cl         5.9541849679       18.4651106395       11.7883334138
 Cl         5.7267388590       11.8600119733       18.7431663041
 Cl        15.3441143381       31.2568835704       21.6636898422
 Cl        15.3079477300       15.3139260914        5.7227449715
 Cl        18.4996051074       31.1497458645       11.9969358187
 Cl        28.0488009963       28.1010411595       25.1710565606
 Cl        21.6203628552       31.1941667571       15.2670827609
 Cl        31.4638144915       15.5781587098       15.2730365263
 Cl        31.1015889092       18.5061923338       24.8690151645
 Cl        31.4610692941       21.4473691033       21.5740189919
 Cl        31.4929174159       24.8244434220       18.4348093352
 Cl        16.0265808739       15.4335643456       31.7755711120
 Cl        15.3093557615       21.6612800075        5.6272284121
 Cl        11.8738269422       18.5204849607       30.9264783344
 Cl        21.6214099224       15.2453803449       31.0797472313
 Cl         5.6929445172       15.2542947527       21.6669276070
 Cl        12.1051820582        5.8170633335       18.3658771635
 Cl        21.6617716141       15.3290880388        5.6440698151
 Cl        21.5840196392        5.1497858080       15.9415361617
 Cl        21.7349169295       21.7553268922        5.7343358106
 Cl         8.8165094867       28.0079287868       11.6492294986
