     381
 i =      137, E =     -9914.1362479491
 Hg        17.4068699575       22.8979630599       16.6616048548
 Hg        20.3890354710       25.8679497586       16.5821554429
 Hg        23.3232092024       28.6324223538       16.5617296462
 Hg        18.1777935713       27.2170962183        7.3424930076
 Hg         9.2103241518       14.2596676415       16.3134007115
 Hg        11.6738780257       17.0853874473       16.4252738853
 Hg        14.5390101091       19.9814034541       16.6032994148
 Hg        20.3029532097       22.8971842533       19.5861626685
 Hg        23.2539519901       25.6829617945       19.4827199361
 Hg        26.5356311337       27.9468205727       19.0389893299
 Hg        14.3000310106       10.9767390563       13.5723202165
 Hg         8.1245312637        9.8801911911       18.7216898637
 Hg        11.5322758032       14.0243875031       19.3790079320
 Hg        14.4459561762       16.9798059589       19.5778799115
 Hg        17.3563443926       19.9945843770       19.5915765330
 Hg        23.2110255369       22.9104937185       22.5145020923
 Hg        27.1264434711       25.9166581596       22.7785674346
 Hg        17.3464584657       13.9808988209       13.4610769856
 Hg        11.5014875375       16.5875004025       10.7768115360
 Hg        11.5424050007       11.9034800683       22.2452725627
 Hg        14.4644453217       14.0810883652       22.4430049483
 Hg        17.3671374913       17.0096827358       22.4098382253
 Hg        20.3468468987       20.0061201102       22.5191752929
 Hg        25.3957848863       22.7148435580       25.4351353469
 Hg        20.3695475129       11.2029889782       19.5884968741
 Hg        14.2164889319       10.1560015910       25.4294364678
 Hg        17.4657709817       14.0392026550       25.2041977344
 Hg        20.2983445538       16.9105891803       25.3149450954
 Hg        23.2767058036       19.8364488241       25.4565380745
 Hg        23.4527252504       14.0027922016       19.6814513425
 Hg        29.0910936815       16.9056151291       22.5771861119
 Hg        23.2277526060       17.0361348861       16.6646107834
 Hg        23.6503482987        7.7906034590       15.5947858665
 Hg        23.4365760095       23.0332668909       16.5651562835
 Hg        20.3931880120       13.9980743474       28.1449197665
 Hg        23.0732492697       16.7756348111       27.8161265991
 Hg        27.4550588634       19.3392326877       28.8265295175
 Hg        20.4206564642       16.9850762146       13.7375969627
 Hg        20.2887281822       16.9955134718        7.6612450321
 Hg        11.6348738086        8.6782789182       19.1506601677
 Hg        14.6346950987       16.8255231361        8.1690171154
 Hg        23.0135349058       11.4771830900       11.0248737145
 Hg        17.4631196703       19.9240203294        7.6523500626
 Hg        29.5313548024       26.3811924980       17.8056449081
 Hg        23.7919072041       13.7408239706       25.8544304174
 Hg        29.0982909879       20.1360292451       13.6947708318
 Hg        14.6431627959        8.6303356781       22.1167729757
 Hg        14.3625044444       14.0615328196       16.4472618740
 Hg        26.4136951861       20.4971209445       10.6254032541
 Hg        26.0672640567       17.0424592539       19.6687329881
 Hg        17.3465129758       11.1450834378       16.4921647010
 Hg        19.2039066651        7.7781810840       25.8529899556
 Hg        20.9995225008       26.1312753183       10.4926897235
 Hg        20.3601852077       20.0068611971       16.5951263951
 Hg        17.3635765452        8.1973815943       19.4655517493
 Hg        21.5319622607       10.8452531523       25.7904224983
 Hg        11.9066414686       22.6230659472       10.9638774749
 Hg        14.6991458103       25.1119132109       10.7709286865
 Hg        17.7712733317       28.3283230871       10.8620206896
 Hg         9.4344327229       19.7961344053       10.6110180773
 Hg        14.4963009164       22.9080394255       13.7000666098
 Hg        17.5883457833       25.7752595312       13.6718273834
 Hg        20.4501892162       28.7830580659       13.6188757261
 Hg        16.3443705528       10.7570713312       10.4247648861
 Hg         8.5070692832       16.8584390857       13.3904101858
 Hg        11.3804948363       19.9859302311       13.5858274538
 Hg        17.3480335882       25.7710648960       19.6508457084
 Hg        20.0682782465       28.7035362801       19.5029762886
 Hg         8.3913097220       17.0300751483       19.4877608195
 Hg        11.6493475015       20.0326221896       19.5485803858
 Hg        14.2839881051       23.0331967451       19.7202150089
 Hg        20.2746030302       25.9958261751       22.5876861283
 Hg        23.5950449801       29.2408090311       20.6131026626
 Hg         9.1045425172       14.2801837542       22.2140473159
 Hg        11.4904061360       17.0773016822       22.6159870124
 Hg        14.3454748839       20.1326429014       22.5969529199
 Hg        17.2569395878       22.9982827792       22.6441932184
 Hg        22.8947295521       25.5373235508       25.2137685151
 Hg        23.1957406443       19.9951498032       19.5874761694
 Hg        23.1655212626       14.4068325836        8.3512311578
 Hg        23.2875692882       14.1065206932       13.7306981207
 Hg        20.3259958650       14.1096543199       16.6148736345
 Hg        11.7734240733       14.3850396657       25.0852370128
 Hg        14.3923974087       17.0009881888       25.5720711229
 Hg        17.2274601796       19.9070999480       25.2878796228
 Hg        20.2308599324       23.0527855115       25.4885604885
 Hg        27.2816611257       11.1743430399       13.5075471245
 Hg        16.3451876522       13.6817627372       28.7700659198
 Hg        17.4416131085       17.2192017776       28.2594555553
 Hg        20.2205134277       19.9784972675       28.5798541932
 Hg        23.0333092035       22.6442596283       27.8874734480
 Hg        23.3776798591        8.4272739462       19.6394034577
 Hg        23.2920879168       11.3472987591       16.7544279553
 Hg        26.4672316044       26.2070533955       15.4398013167
 Hg        14.4291436807       11.2213791547       19.3381666885
 Hg        11.1128435522       13.6140845240       13.1476435522
 Hg        25.4912504369       14.2907067749       10.8309786481
 Hg        28.7166196966       17.4042161734       10.9543600701
 Hg        23.4130059779       17.1831372991       10.7989875567
 Hg        18.8614149023       10.7430193146        7.5916418777
 Hg        26.5534819577        9.1306370187       17.2007069846
 Hg        26.3317018639       16.6723118344       25.6059105450
 Hg        26.6180277794       10.8296565029       20.7460855836
 Hg        23.1608663258       20.2152087404        8.4503214262
 Hg        26.1412805557       20.0498576000       16.6138301223
 Hg        26.0630493193       13.9334312128       16.5962603055
 Hg        20.3955082869       19.9777987897       10.9685179933
 Hg        28.6330262321       22.9057739112       16.5371966329
 Hg        20.4444364165       13.9507791041       22.6526098222
 Hg        17.4174056389       14.0951390752       19.5220076341
 Hg        29.1900191591       17.1434749465       16.7460126413
 Hg        11.4852530137       26.8164066135       13.4621607397
 Hg        14.7936115721       28.3632701792       13.8758405803
 Hg         8.1769050181       23.3011711622       15.5918854476
 Hg        14.3049550218       25.7207829853       16.6107605966
 Hg        17.4054007741       28.8125657266       16.6320970153
 Hg        20.3580401256       17.0004377009       19.6044355504
 Hg        23.3760078936       20.1861050658       13.6129344521
 Hg         8.7111146026       19.7631460217       16.6678887354
 Hg        11.7498593790       22.9256327150       16.7065447473
 Hg        17.2055796799       28.8329471711       22.7614609455
 Hg         9.1572534033       20.1611504242       22.3163130953
 Hg        11.1080569537       23.1943937081       23.0440332176
 Hg        14.2795072693       26.0545772223       22.8551846992
 Hg        20.0969349931       28.0643662391       25.4736777369
 Hg        28.8040950500       14.4864760910       13.9915287008
 Hg        17.3667833572       11.2680760032       22.6234079424
 Hg        20.3789372642       13.9339516074       10.7931493548
 Hg        17.3650173790       20.0379801931       13.7109136763
 Hg        20.5803099394       22.8132495063        8.4830779215
 Hg        27.5619695362       17.8069759698        7.4360349419
 Hg         8.1070266832       17.8809281705       26.5024204629
 Hg        11.4607498750       20.2904853666       25.5323811299
 Hg        13.9756409785       23.2977727029       25.8743499635
 Hg        16.9159111345       25.9357999933       25.6023188719
 Hg        13.9432481574       13.7040323878       10.3247317372
 Hg        17.3921110615       17.0119564201       16.5811274420
 Hg        11.5309078173       17.1459569422       27.6591143811
 Hg        14.1756602750       20.1287491479       28.4740940781
 Hg        17.1048052693       22.6960856778       27.7803777207
 Hg        17.5358869156       23.0061866033       10.8142586731
 Hg        23.8543356933       23.4473545231       10.3016351244
 Hg        20.4969962544       22.9984395274       13.5676442804
 Hg        14.3786834513        8.2293516736       16.4140764800
 Hg        26.0409502019       23.1037308942       19.6463362791
 Hg        23.4847219484       10.9838092016       22.6646460994
 Hg        26.5767186774       13.8302939779       23.0741882438
 Hg        17.3320280150        8.1425095987       13.4123655380
 Hg        23.3155847556       16.8278011298       22.6043777612
 Hg        23.3465309838       26.0538021943       13.4715575912
 Hg        26.1870982728       17.2148642688       13.7189867587
 Hg        17.3083596752       14.1122254049        8.3414578124
 Hg        20.4641990836        8.6597973494       22.4121988882
 Hg        20.1235649902        8.3076611549       16.6930405704
 Hg        11.0622312831       29.2015762207       18.4757032537
 Hg        26.1368969462       19.8470990037       22.5530757401
 Hg        28.7068604863       22.6247059677       22.3148238872
 Hg        20.3114138061       11.0903815513       13.5843490678
 Hg        28.4235656196       14.1942676792       19.7733822658
 Hg        14.5175088419       28.2984297334       19.7335689180
 Hg        11.2071793464       18.4655377142        7.5911763938
 Hg         8.8281666726       22.9657204726       19.6397145290
 Hg        11.1786929927       26.1226583550       20.8200869821
 Hg        14.3946000863       16.8578864220       13.5560779458
 Hg        14.7968151505       22.7313483095        8.3070714845
 Hg        26.4929147905       23.1689178694       13.2889512273
 Hg        28.6808578435       19.6628362416       25.3210679874
 Hg        14.3522133854       19.9081519945       10.6713084733
 Hg        29.1338817433       19.9498875532       19.5904111968
 Hg        17.3803471932       17.0078310958       10.8920340035
 Hg        20.1085194387        9.0549513225       10.6262235061
 Hg        11.3220763577       10.9590066804       16.0095020335
 Hg         9.5084873107       26.2064109604       17.1973989670
 Hg        17.9327775807       10.7702663991       27.4330640920
 Hg        19.4267817708       26.8899489231       28.9084274702
 Hg        29.9861105914        9.9917356860       17.9776496534
  S        18.7481008887       24.5457287999       24.1150301298
  S        21.8272372510        9.6433754841       18.0548872772
  S        21.9141296591       24.5081377985       15.0926883858
  S        22.0931390427        9.2573532138       24.1217638960
  S        10.0545632006       18.4039260327       20.9116873398
  S        27.7375541180       18.5508019705       15.2318209404
  S        27.6625594387       15.5711140183       12.1397724269
  S        18.9111161612       15.4603133141       21.0931005795
  S        15.9105829804       21.4813810489       12.1126729344
  S        16.0334931827       18.5586689931        9.2428144664
  S        24.8005509148       27.7442146246       14.8159571882
  S        12.9747926119       15.3745972501       27.0042421871
  S         9.5884603962       24.4878879281       21.4198089385
  S        12.8820305560       15.5082874622       21.0292022037
  S        25.0158947563       21.6378650661        8.9333711295
  S        21.7016559452       24.4773386961       27.1037374269
  S        24.7549170755       21.4589427160       21.1041668363
  S        15.7827464538       24.5126185042       21.1688255019
  S        18.7495410241       27.3796388922       21.1025951622
  S        15.6777206669       12.4050033136        8.8102018366
  S        10.0357041851       21.4557916188       18.0187896867
  S         9.2846608065       27.8059793501       18.8968271262
  S        21.9596030537       21.5858026539       12.0468525693
  S        22.0562567893       24.6375504059        8.8691872016
  S        18.8806383393       27.3904036796       15.1540632667
  S        18.8474299770       15.5007669686       15.0803733626
  S        15.8203773459       15.4296121064       12.0118537195
  S        18.8746219665       18.5063963917       18.1010416226
  S        12.8451408986       15.4389343778       14.9733553341
  S        21.9951874726       27.6621352855       12.0770182713
  S        21.8751592595        9.5909213451       12.1183951389
  S        15.7788266966       21.5664003601       24.1258265267
  S        21.8274247690       12.5648104003       15.1222644990
  S         9.9275413052       18.8872883109       27.5038669090
  S        10.0554074689       15.6784901120       18.0707905414
  S        15.8542542386       21.5257304590       18.1481266260
  S        18.8741110542       24.4337223344       18.1040872276
  S        24.9095633038       15.4262358110       21.1975144690
  S        24.9856421186       15.4502308022       27.2953381429
  S        15.9097654156        9.6287937571       18.0229470592
  S        18.8787446880       18.4880686708       12.2822378562
  S        25.0517730277       27.3997725778       20.8086197832
  S        15.5858321504        9.2957033718       12.1170823079
  S        21.6490149066       18.5206412757       26.9392722169
  S        12.7916233588       21.5529169850       21.1655768689
  S        27.9506821618       12.5709915787       15.2728346857
  S        28.1607676937       28.1722230363       17.3650529605
  S        24.8435822636       21.1910844182       27.1671483070
  S        24.8003193512       15.5894372097       15.1445436671
  S        18.8128353695       21.5020325291       21.1161624681
  S        10.0307497518       24.7434229386       15.4041939132
  S        24.7881523325       24.4578735874       23.9564372938
  S        15.8304796575       18.5344551750       21.0787457452
  S        12.8658209462       18.4369973455       12.0835985825
  S        18.8646670842       12.5649623298       18.0544705742
  S        18.3783764181        8.9981463057        9.0056924726
  S        12.8269870009       24.5518460715       18.2234940317
  S        24.8363186930       18.3652277171       24.1350007706
  S        15.8800665302       18.4610409665       15.0651202958
  S        18.8882868948       21.3249710540       26.8935154795
  S        15.9006513228       27.2863900152       18.0123058972
  S        21.8038557280       21.4691435400       24.0915591337
  S        21.8790856937       27.4418279491       24.0238065045
  S        18.8280223188       12.4709282561       12.0634882199
  S        18.9120310624       21.5312577643       15.0952004002
  S        12.8139268268        9.7543953690       20.9810960445
  S        12.9417005108       21.4125110719        9.0700316218
  S        18.9847640481       12.4147451019       24.1187251426
  S        24.7311626308       18.5380918763       18.1186705926
  S        12.8200612173       27.7413636000       21.3696929851
  S        27.6247248309       21.5024935690       18.2444131225
  S        19.0612197098       24.5487300766       12.0573881129
  S         9.9035003917        9.0204014253       17.5297743089
  S        16.2229252130       24.5546340140        9.0410948812
  S         9.4768924284       18.0297430912        9.0416101545
  S         9.6629748223       12.3973402587       14.9135782154
  S        28.1953843618       12.4847895536       21.4108942450
  S        24.9209042988       21.6095462314       15.0605759063
  S         9.8870409934       15.6028529886       24.0553166150
  S        28.0278344515       21.6396591935       12.0764002347
  S        21.7540795852       18.4438956444        9.2951615530
  S        18.9767295006       15.5946554908        9.3028396234
  S        16.1469674615       12.2419198707       26.9160364362
  S         9.6900184763       21.4743055361       24.2297918213
  S        15.8379862264       18.5481234793       26.9689901941
  S        15.8680826252       15.5403310699       23.9934244473
  S         9.7996099749       12.4816888172       20.7416882079
  S        12.9039696239       27.5431464997       15.1912468767
  S        18.7649894488        9.6979451508       21.0240327450
  S        15.9559108072        9.4384917910       24.0186712351
  S         9.9818837036       21.5632705444       12.0937608726
  S        12.7339539409       24.6241878739       24.1995306979
  S        24.9542375135       12.3539222944       24.1844124192
  S        13.0057804392       18.5035843945       18.0542428148
  S        12.8264670908       12.2967235731       11.9814186028
  S        24.9343429466       18.6940566146       12.1064224908
  S        15.7221114107       24.5570518397       27.2793584574
  S        27.6933236413       18.5004310380       21.0675971004
  S        13.0267078547       12.5012096186       23.9919658051
  S        24.9679783022       24.6958422838       12.0775796349
  S        28.2828428103       18.0769542014       27.0788403603
  S        21.9018246426       18.5685999765       15.1009539833
  S        21.9217312352       12.4756330997       21.1333226872
  S        18.8344853028        9.6091445743       15.0624404450
  S        12.8455873182        9.4060482670       14.9260160784
  S        12.7145076847       21.6131100722       27.1975960549
  S        24.9092045047        9.3083161928       21.3637771728
  S        21.9174699411       15.3923358786       24.1625451240
  S        15.9414441227       24.4395137208       15.1228779489
  S        21.8569295256       18.4556204013       21.1300966357
  S        25.0922460914        9.6412587968       15.4062151295
  S        18.7762393127       15.5006406912       26.9326689585
  S        15.8615110744       12.5470408431       15.0185889498
  S         9.7711681418       15.3190308703       11.9440030293
  S        21.7698395117       24.4556618480       21.0997913589
  S        24.8848818829       12.5535512154       12.3108276444
  S        21.8551971876       21.5324622602       18.0687771880
  S        19.3977167492       28.0309081415        9.1244841467
  S        12.8337891834       12.4947507661       17.8820611673
  S        24.9035051859       24.5730045597       18.0062896243
  S        21.8709127150       15.4795073677       18.1521766315
  S         9.9904249626       18.4436751848       15.0379234821
  S        12.9501100077       21.4363918676       15.0869778159
  S        21.9090264538       15.5640583393       12.1479465534
  S        27.5804822930       21.4848348731       24.1513604627
  S        27.5951946426       15.5896760326       18.0212111654
  S        24.9322012185       12.4650505179       18.2406205788
  S        19.6287541774        9.1621054196       27.6389326744
  S        21.8010098950       27.3963797188       18.1722060694
  S        18.8346475927       18.4669827812       23.9533185218
  S        28.1335014902        8.9982366556       18.9295580499
  S        28.0031420388       15.4623515858       24.2441012161
  S        28.1155798781       24.5947054194       14.8853667710
  S        12.8836519394       18.5478891318       24.1140635529
  S        27.8633709131       24.5260586569       21.0318690009
  S        18.8500339246       21.3665269696        9.3069994209
  S        18.3760703708       27.8678654931       27.0998360636
  S        15.7029407428       27.5665733753       24.2230104860
  S        12.9563959636       24.4928515312       12.2500317858
  S        15.9503684453       27.2544836447       12.0481997974
  S        15.8890331532       12.5549462408       20.9921590192
  S        22.1721036448       12.4686639282       27.3786708641
  S        24.9936839537       15.8318601924        9.1029012014
  S        21.8505171921       12.5597466133        9.1211986054
  S        28.3763998909       19.0246632982        9.2201270039
  S        12.7960185455       15.4695462122        8.9501404645
  S        15.8764864616       15.5036983806       18.0432573905
 Cl        26.8865258081       16.7140278598        5.5505127790
 Cl        30.4037525737       15.5911082556       20.8764180898
 Cl        21.8174092670        6.9424777863       21.0356643513
 Cl        26.7789949887       20.4775024470       30.6855620525
 Cl        19.0924754339        6.9624298151       12.1292228313
 Cl        30.6988292553       18.5531221395       18.1784999774
 Cl         7.3919076805       24.4264758773       17.9648794369
 Cl        12.9333537837       30.5147360821       18.2348322077
 Cl        16.1036197807        6.7774256138       15.2265326802
 Cl        30.5480008106       18.3790771896       12.4712844380
 Cl        12.5227520984       10.1912602308       27.0002902920
 Cl         6.2051765123       17.0069796119       25.5966099926
 Cl        21.6759875808       30.5698318616       20.7840140588
 Cl        15.8712232867       30.2466537009       15.1363251353
 Cl        18.7158669070       12.5199399977       29.5546524342
 Cl        15.9147072428        6.7551898513       21.0409720198
 Cl        20.3439986969       26.0143998552       30.8042032487
 Cl        18.8863595210       18.3901829057       29.9797873736
 Cl         7.2565409201       15.6278192133       15.2131251638
 Cl        13.0377615391       18.5467001681        6.1868279851
 Cl        24.7566496922       30.0577751480       18.2615131555
 Cl        18.9602088422       18.5332707346        6.1802329019
 Cl        17.0589155124       26.5465500937        5.4706024843
 Cl        30.4634883124       21.4733645829       15.3658501303
 Cl        18.8040365968       30.3479747876       18.0684319739
 Cl        27.2639664099        9.6186586606       11.8025377187
 Cl         7.3094714902       21.3512295379       20.9515891491
 Cl        31.8786864801       10.9021399168       17.0973168997
 Cl        18.9520405560        6.6785252798       18.2188606491
 Cl         6.8441878404       21.3881074100       15.3883215708
 Cl        18.9843150851        6.4753437165       23.9702182824
 Cl        21.8443825227       21.4065005850       29.8498226524
 Cl        16.0362505113       21.3144091549       29.7251703565
 Cl        24.8004048947        6.9865110159       17.9640853844
 Cl        19.0249240788       12.5982402766        6.2349984531
 Cl         6.9907983215       18.5562150658       18.0829740501
 Cl        19.0275500263       30.0549232343       23.9600292974
 Cl         7.3983034174       18.6937203766       12.1323586168
 Cl         6.2474563313       10.6195230138       19.7876827071
 Cl        15.9297362364       30.0998790068       20.9634287839
 Cl        16.1322579084       15.5987897384        6.5267660280
 Cl        18.7066489152       30.2003686608       12.3569165238
 Cl        27.0610713211       27.4712298615       24.4871747166
 Cl        21.7353505447       30.2169055579       15.2895948970
 Cl        30.6377309781       15.5341098294       15.3286893529
 Cl        30.5125238284       18.6722886909       23.8384691105
 Cl        30.5728949293       21.5078966260       21.0793215098
 Cl        30.8172936958       24.4917654622       18.0588527999
 Cl        16.1830526843       15.5795021573       30.1264790379
 Cl        16.0822892184       21.5875285918        6.3558364996
 Cl        13.0549271257       18.2381244710       29.6495838363
 Cl        21.7365862968       15.5689486347       29.6767906950
 Cl         7.1292748774       15.4923556383       21.0099715749
 Cl        13.1404940773        6.8278437386       18.2044071258
 Cl        22.0308391607       15.6867724452        6.3943718265
 Cl        21.7465764382        6.4414964236       15.4250506958
 Cl        21.7861019921       21.4206252509        6.6214001954
 Cl         9.9173680278       26.7590362232       11.7663451860
