     149
 i =       50, E =     -3824.4956188680
 Hg        12.3569680145       13.5067006495       11.1581450826
 Hg        12.3433134262       10.9825741093       14.1652695582
 Hg        10.5421140660       14.3824139426       14.4484746501
 Hg        15.8246001951       15.8008149358       10.3702075438
 Hg        15.8457548046       13.0366213696       13.3057036171
 Hg        13.5281669580       16.7783163871       13.5165539714
 Hg        15.8277964161       10.5396880914       16.5521494260
 Hg        13.5333099425       13.8398575040       16.9695074986
 Hg        11.6419508907       17.3268436454       16.9495750800
 Hg        19.0637766639       15.4128507668       12.6471858602
 Hg        16.9513738471       18.7882567617       12.8903689822
 Hg        19.1494582472       12.7370728578       15.8092777955
 Hg        17.0905904223       16.3080830040       16.0874318594
 Hg        14.6646602204       19.6432563794       16.3487760657
 Hg        16.9378146131       13.5553254309       19.1051507080
 Hg        14.6522607482       17.1036634300       19.3399666980
 Hg        11.5790587062       10.5377131701        8.6957753149
 Hg         9.2662310467       14.3205618162        8.8611160126
 Hg        11.5413898091        8.0691291364       11.6387480744
 Hg         8.0797899994       11.1244034468       11.6966269797
 Hg         7.1053095830       15.1247740842       12.0166009364
 Hg         9.2414514327        8.8497530896       15.3539959855
 Hg         7.0994558705       12.1105507824       15.5720731870
 Hg        14.7231428220       12.6032677724        7.6588069832
 Hg        12.3597681339       16.3915771207        7.8792291571
 Hg        14.9531551404        9.3685128879       10.2604047301
 Hg         9.5789527536       17.8345569648       10.6751969752
 Hg        14.6668005227        7.3893904572       13.8552803206
 Hg         8.0292591399       17.9737282127       14.5444134146
 Hg        12.3313090450        8.2230970288       17.5825948887
 Hg         9.5355927818       11.2434554933       18.5004218531
 Hg         8.0154582675       15.0849743934       17.9560087959
 Hg        18.0239921419       14.5947652259        7.0424997861
 Hg        15.5097942999       18.5988129266        7.3230498706
 Hg        18.3476832621       11.5155587610        9.4556049978
 Hg        12.8835094186       20.0289374618        9.9381481242
 Hg        18.2777973118        9.1315994955       12.6367824766
 Hg        10.7127658849       20.8808562649       13.2345669020
 Hg        17.9961605185        6.9937940135       15.8354173805
 Hg         9.2691198470       20.8616553085       16.8701877772
 Hg        15.5298156949        8.0839352059       19.7930900732
 Hg        12.8120398194       10.8452930912       20.8304085434
 Hg        10.7025356400       14.2817165855       21.0480365833
 Hg         9.2559738720       17.8514672342       20.4325162804
 Hg        21.2205069782       14.2341082198        9.2875821696
 Hg        19.0923932437       18.0181233466        9.5748690950
 Hg        16.5748244568       21.4793139263        9.7454835597
 Hg        21.4470931621       11.7669383905       12.2682217163
 Hg        14.6176544094       22.3988520331       12.9636090709
 Hg        21.1948273217        9.2766391387       15.2850151467
 Hg        12.4934417203       22.9320901764       16.1322010700
 Hg        19.0345596599       10.1430333149       18.8898132971
 Hg        11.8378267998       21.0590135187       20.0969448442
 Hg        16.4984622457       10.9050441257       22.2907573616
 Hg        14.5818186081       14.2448237580       22.6217443708
 Hg        12.4788071966       17.4648166618       22.6196969256
 Hg        22.5188197585       17.6781773054       12.2030312605
 Hg        20.4442713251       20.9996692154       12.4694211961
 Hg        22.6567385998       15.0684190554       15.0508666180
 Hg        21.1206191019       18.8841921489       15.7026292858
 Hg        18.2461649955       21.9397199487       15.5487117782
 Hg        22.5610789898       12.7310908524       18.1574900020
 Hg        20.9811873229       16.2555647083       18.6833389859
 Hg        18.8530954466       19.7405796280       19.0119899705
 Hg        16.0549689802       22.4439581741       18.7440107325
 Hg        20.3885067998       13.4663989133       21.3633708154
 Hg        18.2254645444       16.7154643975       21.7748055952
 Hg        16.0318016309       19.9607453706       21.6836355691
 Cl        12.1446322234       22.8335251647       21.5927246191
 Cl        16.2246012853       23.5099196856       11.1544909069
 Cl        10.3784683984       15.1129413647        6.7343203802
 Cl        16.1786610512       12.6441919975       24.0412198325
 Cl         7.1304077172        9.4972858516       10.3100711617
 Cl        24.1321583255       13.2076118967       16.2877453865
 Cl         7.0870707579       17.0816970258       19.4330582587
 Cl        17.3047516539       23.8639491892       17.0341358808
 Cl        13.8388466585        6.4686801469       18.8413046708
 Cl        17.2658827348       18.5102457904       23.3904454047
 Cl        13.8462475656       24.3501322327       14.5356924201
 Cl        12.6391291305       11.4722160181        6.5731555252
 Cl        10.3511233149        6.8890091413       16.4881258220
 Cl         5.9182920983       13.9583392124       16.8009153732
 Cl        19.5253847902       14.8845266159       23.2237651490
 Cl        22.9713949142       10.1935912583       13.7472575811
 Cl        15.9939132470        5.6324791954       15.4674584565
 Cl        23.0094349657       12.9464301990       10.4837195945
 Cl        19.5709305195       23.0764617634       13.5145275212
 Cl         5.9262320147       16.6452862991       13.6271705945
 Cl        12.6029407248        6.1226479862       12.9233209306
 Cl        13.8923083148       17.3137125636        5.9123045008
 Cl        16.0808605942       13.8290716845        5.6979721774
 Cl        24.1488171683       15.9714641735       13.0536295140
 Cl        13.8199266134       16.1247977513       24.2868743905
 Cl         7.0950169225       19.7641733369       16.2562283455
 Se        13.8891120590       11.6329907745       12.1556937048
 Se        11.3880812757       15.6142104771       12.3727243636
 Se        11.3714363994       12.5450742304       16.0226114666
 Se        17.4167059182       13.9575082837       11.2862062106
 Se        14.9154662146       17.9392847085       11.5206644352
 Se        17.4246284075       11.1976837229       14.5906971574
 Se        15.0163232116       14.9866303565       14.9706189665
 Se        12.5708544852       18.7681719003       15.0481539001
 Se        14.9161987697       12.0700060431       18.4436342676
 Se        12.5598728518       15.6811629722       18.6830553662
 Se        18.7298030600       17.4323888834       14.2284381747
 Se        18.7166559494       14.6474917561       17.5273347009
 Se        16.3842345025       18.2653205218       17.7580811983
 Se        12.6228968502        8.3241612443        9.3614169090
 Se        10.1942810654       12.2435588227        9.9896340939
 Se         7.6856763042       16.1016435358        9.7692650505
 Se        10.1705632987        9.6229719199       13.1163776198
 Se         7.9983138635       13.0576071994       13.3239683305
 Se         7.6506212861       10.0645707818       16.9323396630
 Se        16.2178476273       10.6199017877        8.3421499398
 Se        13.7990846357       14.5882366041        9.0698819654
 Se        11.1846862960       18.5218148179        8.7537844720
 Se        16.2382753222        7.7502046476       11.8558509719
 Se         8.7047119963       19.4226269672       12.5174413142
 Se        13.7663945519        9.1000627136       15.5962430266
 Se         9.2885705234       16.2521096667       16.0210014444
 Se        11.1198806933        9.4530232923       19.5110113775
 Se         8.6821668971       13.3417384209       19.7397024922
 Se        19.8598469129       12.9842295959        7.5971030117
 Se        17.3371992824       16.9057914017        8.0651556001
 Se        14.8112260977       20.8842318873        8.0713905527
 Se        19.9605392071       10.1552283691       10.9403386441
 Se        12.4626842758       21.9167767923       11.6202353229
 Se        19.8715946430        7.4141916979       14.2549232977
 Se        10.1223984290       22.6010253569       15.2604309645
 Se        17.3319162515        8.4559081300       17.9908271688
 Se        10.4094440621       19.4647830441       18.7448132271
 Se        14.7575672854        9.1456778844       21.9325554847
 Se        12.4197602792       12.8511779883       22.3751128648
 Se        10.1050358985       16.5588221218       22.4189919980
 Se        20.9056529377       16.4654706629       10.5759341067
 Se        18.5638688518       20.1885387087       10.8323166307
 Se        20.7900960843       13.6994308958       13.8873984546
 Se        16.1659503349       20.8795973645       14.3888490297
 Se        20.9027657223       10.9120050602       17.2527012132
 Se        13.7453530521       21.6930141509       17.9632532073
 Se        18.5067969440       11.7405051004       20.8283333137
 Se        16.1471544905       15.3888944115       20.9002967935
 Se        13.7291096880       19.0526898539       21.0785343133
 Se        22.4568083165       19.8618011119       13.4291282249
 Se        22.5439873052       16.9919273301       16.7390575279
 Se        20.0819206021       20.8503180303       16.9874169473
 Se        22.4070182748       14.2690360177       20.1182808684
 Se        20.0594569014       17.9135884599       20.4259739168
 Se        17.6118552110       21.5866589165       20.5523351371
