     193
 i =       21, E =     -1691.1648981676
 Cl        21.2413087221       17.9456287011       21.2411642894
 Cl         8.7793473717       21.2418261989       17.9338862499
 Pb         8.4446154793       11.7089896072       11.6883640156
 Cl        21.1103738402       24.4738021019       14.9998957315
 Pb        11.8071594310       18.2332312680       15.0000060761
 Cl        12.0514596738       21.2445227370        8.7529669533
 Cl        12.0764577755        5.4972113644       17.9377565877
 Te        18.2645265574       15.0005272464       21.5253447792
 Pb        11.7052473109       21.5625837952       11.6656982939
 Pb        14.9936740141       11.7747791836       18.2374337844
 Te        15.0000098588       15.0000115911       11.7213357369
 Cl         5.4886309979       12.1069519655       17.9408287668
 Cl        17.9417721379        5.5183512888       12.0681074534
 Te        11.7371639595       18.2716588184       18.2720648018
 Te        11.7494085633       21.5266987214       14.9999963090
 Te        21.5583454499       18.2950392667       14.9999961094
 Cl        14.9958648973        8.8524663728        5.5542984315
 Pb        18.3063667314       18.2960740825       21.5779137265
 Pb        11.7158376037        8.4268530436       18.3572663224
 Cl         5.5259307150       17.9676837707       12.0778876962
 Pb        11.7033085853       18.3042450111       21.5756634510
 Pb        11.7052540267       21.5625724206       18.3342994076
 Te        18.2645441706       15.0005405138        8.4746542164
 Te        14.9961834589       11.7356422152       21.5206499973
 Te        24.8749098864       15.0080812945       15.0000051050
 Cl        21.2331376953       12.0564801403        8.7600658130
 Cl        12.0514444003       21.2445183883       21.2470251109
 Pb         5.3971429738       18.4503237092       15.0000107269
 Cl         5.5572608871       14.9901340149       21.1695407141
 Cl        21.2323904194       21.2661383326       17.9209061160
 Pb        11.7779824024       14.9995392339       11.7507926495
 Pb        18.2259650682       24.6823213340       14.9999842164
 Pb        21.5553871225       18.2910351763       18.3116289412
 Cl        24.4740806802       12.0323558036       17.9221316513
 Pb        11.6936155768       11.7039253558       21.5779222217
 Te        14.9903307511        8.4745035107       11.7418370422
 Cl        24.5113654655       17.8930760555       17.9408224745
 Pb        15.0553914335        8.2107168580       15.0000081410
 Cl        12.0625627888       17.9395232684       24.4895947174
 Pb        15.0000052441       15.0000030290       15.0000047692
 Te        21.5222229277       15.0056306615       18.2636499846
 Cl        21.2324045044       21.2661356740       12.0790714996
 Pb        15.0063297595       18.2252399506       11.7625735983
 Pb        14.9960777528       24.6467327781       18.3503710940
 Te        14.9999976980       15.0000045908       18.2786653782
 Pb        14.9999896607       14.9999937361       21.7888503964
 Cl        21.2206596147        8.7581856567       17.9338881008
 Te        15.0096900503       21.5255197273       11.7418250092
 Cl        24.4740930184       12.0323514513       12.0778822633
 Cl        17.9235522096       24.5028047255       12.0622393773
 Cl        14.9958976444        8.8524449944       24.4457097613
 Te        14.9999908406       14.9999889950       24.8647605774
 Pb        18.3100150474       14.9993857001        5.3480712278
 Pb        11.7467622899       11.8150433442       15.0000030093
 Pb        15.0063196702       18.2252295969       18.2374265291
 Cl         8.7676113009        8.7338838221       17.9209261386
 Pb        15.0014779868       18.3178899285       24.6442318124
 Pb        11.7740437201        5.3176872431       15.0000224759
 Pb        11.6936376139       11.7039308870        8.4220888459
 Te        15.0096836917       21.5255125442       18.2581638551
 Te        11.7142160967       11.7157938956       18.2746666145
 Pb        14.9936909936       11.7747951943       11.7625770703
 Cl        12.0603187964       12.0641331523       24.4937777767
 Cl         8.8579000181       14.9883462121        5.5497624287
 Pb         8.3509522906       14.9969400925        8.3022712146
 Cl         5.5259303016       17.9676754802       17.9221413191
 Te         8.4416651838       11.7049787495       15.0000112497
 Cl        12.0603378604       12.0641652682        5.5062384598
 Cl        21.1421189429       15.0118287083        5.5497560269
 Te        14.9903266025        8.4744874611       18.2581761890
 Pb        24.6360937926       14.9613102417       18.3880863647
 Te        11.7142257075       11.7158113168       11.7253479732
 Pb        15.0003256481        8.3334272007       21.6916675166
 Te         8.4777899987       14.9943924106       11.7363632407
 Pb         8.2699173325       14.9993843494       15.0000145430
 Te         8.4777768726       14.9943895054       18.2636685058
 Pb         8.3509168690       14.9969058069       21.6977558517
 Cl         8.8578814948       14.9882302728       24.4502631753
 Pb        14.9985124461       11.6820886498       24.6442305778
 Pb        15.0003195698        8.3334332494        8.3083406168
 Pb        14.9996999589       21.6665808708        8.3083277027
 Cl        21.1421022854       15.0117747824       24.4502407341
 Cl        17.9235696974       24.5027873070       17.9377305482
 Pb        21.5421034008       11.6979359609       11.6835036933
 Pb        14.9985361333       11.6821078472        5.3557785657
 Te        11.7137488041       15.0044247580       15.0000063412
 Cl        21.1424125635        5.5674852969       15.0000016735
 Pb        18.2947598096        8.4374371442       18.3343117523
 Te         5.1251173493       14.9919485233       15.0000091835
 Te        18.2857813831       18.2842092376       18.2746473190
 Cl         5.5572905708       14.9902678489        8.8304848001
 Pb        21.7301017054       15.0006390163       15.0000019681
 Pb        21.6490765310       15.0031202860        8.3022667096
 Cl        12.0582250133       24.4816687232       12.0681030652
 Cl        14.9867318020        5.5592340594        8.8443580562
 Cl        12.0582407328       24.4816661289       17.9318915290
 Te        21.5111668200       11.7576245188       15.0000001521
 Pb        21.5420882947       11.6979343065       18.3164891972
 Cl        21.2331271258       12.0564690505       21.2399344437
 Cl        12.0477355777        8.7537870018       21.2570365268
 Te        15.0038051553       18.2643464388       21.5206498296
 Cl        15.0041154456       21.1475318007       24.4457002297
 Pb         5.3639090388       15.0387134524       18.3880932043
 Pb        18.3175485067        5.3482229379       14.9999980801
 Pb        18.2532444229       18.1849631127       14.9999976658
 Cl         8.7668797715       17.9435463584        8.7600770761
 Cl        15.0132595772       24.4407599870       21.1556403189
 Pb        24.6583204685       17.9949356057       15.0000032878
 Cl        17.9522780921       21.2462250423        8.7429691464
 Pb        18.2841763354       21.5731630169       11.6427361902
 Pb        11.7779754579       14.9995300614       18.2492252778
 Pb        15.0039301483        5.3532829348       11.6496266383
 Pb        14.9446236572       21.7892944641       14.9999946394
 Cl        12.0626029918       17.9395503949        5.5104116581
 Pb         8.4579221187       18.3020823967       11.6835155287
 Te         8.4888403842       18.2423954072       15.0000098468
 Pb         8.4579131037       18.3020805571       18.3165007456
 Pb         5.3416974928       12.0050906410       14.9999982119
 Te        15.0128937384        5.1411268796       15.0000075117
 Te        18.3136232589       21.5433891004       14.9999928863
 Pb        18.2841829450       21.5731488239       18.3572462569
 Cl         8.8896401033        5.5262150752       15.0000737306
 Pb        18.3063919425       18.2960807940        8.4220839571
 Cl        15.0132261826       24.4407788354        8.8443430654
 Pb        14.9960644002       24.6467422550       11.6496128291
 Cl         8.7668625416       17.9435360277       21.2399451374
 Te        15.0259536914       18.2864255758       14.9999984744
 Cl        14.9868313723        5.5592331321       21.1556487538
 Cl        17.9522701513       21.2462055433       21.2570262949
 Pb        11.6824674748       24.6517837743       15.0000022447
 Cl        24.5113767346       17.8930762812       12.0591741439
 Te        14.9871189339       24.8588820116       14.9999913862
 Pb        18.2947608051        8.4374366698       11.6657021065
 Te        18.2506079192        8.4733084052       15.0000047616
 Pb         8.4446031197       11.7089893258       18.3116411410
 Cl         8.7676312276        8.7338887381       12.0790976459
 Pb        15.0015071335       18.3179096812        5.3557664906
 Cl        12.0764457764        5.4972233348       12.0622708343
 Pb        21.4157695726       21.7542465142       14.9999728539
 Pb        14.9996863127       21.6665619046       21.6916587826
 Pb        21.6490612664       15.0030990627       21.6977293436
 Cl         5.5539541571       21.1777927372       15.0000159365
 Pb        24.6360924161       14.9613137182       11.6119217664
 Pb         8.5842473652        8.2457760186       15.0000229114
 Pb        11.7033386158       18.3042553251        8.4243566619
 Te        18.2857894929       18.2842171737       11.7253346318
 Pb         5.3639212316       15.0387298851       11.6119233510
 Cl        17.9417797286        5.5183418067       17.9318915897
 Te        11.7354824562       14.9994717331        8.4746654378
 Pb        15.0000134850       15.0000069679        8.2111564794
 Pb        24.6028668976       11.5497040922       15.0000053565
 Cl        17.9485595261        8.7554762025       21.2470370631
 Cl        24.4427256246       15.0098540741       21.1695263361
 Cl         8.7586705404       12.0543787166       21.2411828941
 Cl        15.0041843736       21.1475551950        5.5542867980
 Pb        11.6899931267       15.0006241706       24.6519304087
 Cl        17.9374450711       12.0604692009        5.5104114526
 Pb        21.6145641799        8.3140567112       15.0000033620
 Pb        18.2220306349       15.0004811154       11.7507803688
 Cl         8.8576032557       24.4325212689       15.0000239999
 Te        18.2862753769       14.9955831968       15.0000021580
 Pb        11.6900133736       15.0006572345        5.3480847594
 Pb        18.2966948794       11.6957573484        8.4243424017
 Te        18.2628515613       11.7283519728       11.7279373358
 Cl         8.7793511599       21.2418337502       12.0661152992
 Cl        21.2206705505        8.7581954249       12.0661175165
 Cl        17.9485655583        8.7554839790        8.7529747025
 Te        15.0000135420       15.0000097939        5.1352471341
 Cl         5.4886406901       12.1069592486       12.0591708669
 Te        11.7371697312       18.2716696953       11.7279428740
 Pb        15.0039559759        5.3532623186       18.3503763151
 Pb        18.1928458958       11.7667740177       14.9999941067
 Te        18.2628409637       11.7283481035       18.2720600902
 Pb        18.3099988417       14.9993598841       24.6519258960
 Cl         8.7586849140       12.0543869342        8.7588451156
 Te        15.0038274715       18.2643629295        8.4793471639
 Cl        21.2413337337       17.9456424739        8.7588273059
 Cl        24.4460598842        8.8222375076       14.9999995684
 Cl        17.9396690578       17.9358528719       24.4937599937
 Cl        12.0477485834        8.7537933580        8.7429812193
 Cl        24.4427336219       15.0098697581        8.8304755494
 Cl        17.9397097436       17.9358580050        5.5062238854
 Pb        18.2966823919       11.6957553509       21.5756582150
 Cl        17.9374267339       12.0604685780       24.4895973339
 Pb         8.3854480849       21.6859555150       15.0000075661
 Te        21.5222249411       15.0056327464       11.7363512015
 Te        14.9961962902       11.7356504708        8.4793604926
 Pb        21.5554013003       18.2910325355       11.6883676356
 Pb        18.2220272268       15.0004756454       18.2492175440
 Te        11.7354575962       14.9994649135       21.5253491775
 Te        14.9740489776       11.7135796471       15.0000064782
 Pb        11.7158390432        8.4268623561       11.6427579283
 Te        11.6863941416        8.4566216729       15.0000088652
