      35
 i =       11, E =      -853.9262732156
 Hg        10.1100145931       15.6518508573       10.1213663148
 Hg        10.1352865596        7.3422018639       12.8822507156
 Hg        13.2110089351       13.2205829018        9.7773721172
 Hg        15.6547700659       12.8880181142       12.8685686396
 Hg         7.3384842625       12.8653429005       10.1289840234
 Hg        12.8682635393       15.6594105240       12.8714625088
 Hg        12.8724367083       10.1230505228        7.3419360464
 Hg         7.3488704921       10.1135936460       12.8857150763
 Hg         9.7805032622       13.2151583813       13.2194004632
 Hg        13.2237627862        9.7875170284       13.2157223236
 Hg        10.1118693597       12.8705182306        7.3442039274
 Hg        10.1335195480       10.1232841987       15.6595624101
 Hg        12.8808943298       12.8830982325       15.6533471340
 Hg         9.7820605552        9.7765029645        9.7848527955
 Hg        12.8848705294        7.3464048776       10.1232842886
 Hg        15.6567859106       10.1328006339       10.1160069774
 Te        11.4991637483       11.4999346144       11.4991324758
 Te        11.2756412415       15.0092519840       15.0060815044
 Te         7.9972967900       11.7157445321       15.0137532817
 Te        11.7356695810        7.9955228833       15.0100506948
 Te        11.7066535536       15.0054593760        7.9885200966
 Te        11.2806341459        7.9886080907        7.9947856489
 Te         7.9838943686       14.9994006941       11.7244567898
 Te        15.0006706126       11.7273882073        7.9847062090
 Te        14.9982699910       15.0160426640       11.2697416652
 Te        15.0140198332       11.2891238202       15.0014901700
 Te         7.9997877656        7.9836713407       11.2870339686
 Te        15.0165665709        8.0016966979       11.7176461291
 Te         7.9858339192       11.2675713449        7.9972774103
 Cl        11.4890950173       11.4952021067        5.4854459131
 Cl         5.4862470565       11.4856286576       11.5100394791
 Cl        11.5143256454        5.4868980644       11.5043542912
 Cl        11.4851733100       17.5130958388       11.4955736505
 Cl        17.5134604493       11.5150092134       11.4889185418
 Cl        11.5101155947       11.5041630343       17.5143778097
