     282
 i =       48, E =     -8253.5723212357
 In        25.4189951411       22.5263009707       13.2682108364
 In        22.6095639568       13.6959182013       13.5369782095
 In        16.7425870739       25.4944823409       19.5524594492
 In        16.7480207501        7.5070784295       13.3586434237
 In        19.3967997802       16.3408369865        7.4251694866
 In        22.6184286468       13.5302390318       19.5440071685
 In        16.4208076694       13.3631119854        7.4277025050
 In        19.5525918757       16.5019295287       13.5160202295
 In        19.8028982005       16.2515897546       25.5749249935
 In        16.6042667269        7.4172929543       19.3956288556
 In        19.4735873620       19.4557051417       10.4684857718
 In        22.5269317922       16.3471817540       10.3917789826
 In        22.6046054750       16.5795708869       16.6630310282
 In        22.6106391442       16.4877438885       22.6015544225
 In        16.5926136512       13.4526864516       13.4486399923
 In        19.5487973531       19.4729131798       16.5128296165
 In        19.5477210331       19.3840839525       22.5251330932
 In         7.4138382899       10.8073163809       13.5182472748
 In        22.3589622222       19.2255632471        7.4223735700
 In         7.1675146719       14.8520259657       10.7212370915
 In         7.5175140685       13.4519330604       16.7420720804
 In        16.5794983349       13.3742522841       19.4698277992
 In        22.6059552912       19.4552435667       13.5323583818
 In         7.7456226744       16.5641311832       13.7678380455
 In         7.5904032446       16.4212812939       19.6474674977
 In        22.6880651153       19.5495685332       19.6263307274
 In         7.5067376321       19.6502189454       16.6705341043
 In         7.6706970583       19.4668066562       22.5327809045
 In        19.5619072608       16.5040942409       19.5511697751
 In         7.6756322252       22.7645014152       19.6385395223
 In        22.8585755528        7.6605427434       19.4688645296
 In        22.5345181132       22.3722192237       10.6389224607
 In        16.5851044018       25.3299415443       13.6814342220
 In        19.3179047264       22.3695983036        7.4937649480
 In        19.6344620254       22.4429325332       13.5371956891
 In        16.4193523667       22.5284470236       10.4768210059
 In        19.6386947800       22.5190307494       19.5439838613
 In        22.4267481297       22.1926817752       16.2506015932
 In        16.5779070600       22.5217051648       16.5011238434
 In        16.5850111081       13.2774256484       25.4976646007
 In        16.6575395555       22.3692467066       22.5181753725
 In        22.7687019351       25.2541473983       13.1991811990
 In        19.7984532069        7.5054414828       16.3388659915
 In        19.4706540731        7.4160705540       22.2890958328
 In        22.8436688367       13.2037570852       25.3377530896
 In        10.9715625391        6.9250350534       14.3451849011
 In        18.7368731937       26.0008659298       10.9639780187
 In        10.8096852825       10.4742289000       10.4820249562
 In        10.4830152647       10.3911932465       16.6578132895
 In        25.5785285740       10.3107178686       19.6300747333
 In        10.5522673897       13.6076167169        7.5803023668
 In        10.5588111120       13.3570724574       13.6843381496
 In        10.5506361489       13.3748545868       19.6264695224
 In        22.6948611450       10.5600880835       16.4278687980
 In        10.5512270976       16.4920813034       10.6406612426
 In        10.5515168113       16.4933942424       16.5898747089
 In        10.5561069272       16.3477006697       22.6831770357
 In        16.5716936203       16.3344882192       22.5188955718
 In        10.4780137902       19.5593871333       13.5289197670
 In        10.5550740471       19.4756691098       19.5445940130
 In        11.3714435996       18.7275349634       26.4150171922
 In        10.5439387323       22.5300333281       16.5336020222
 In        10.5428950287       22.6141252152       22.1121188982
 In        10.3971242592       25.4229912102       19.6330052559
 In        19.6432878681       13.4374399371       22.4597301907
 In        16.3467903542       19.4898845143        7.4962687596
 In        19.7330663339       25.4135456245       16.5824161336
 In        25.6568871751       13.3672965287       16.6634191972
 In        19.7048379898       10.4832246886       13.3683586740
 In        25.5047179757       13.3641818297       22.6942438658
 In        16.4989345967       19.5457940962       13.4537085461
 In        16.5098645157       16.4903734377       10.4723169266
 In        19.7180112487       10.4715082110       19.3873849960
 In        13.4370879665        7.5751379055       10.4765505263
 In        13.6863515921        7.6705864617       16.4104767112
 In        25.3226690503       16.1601154712       13.4427822772
 In        13.3594758632       10.2256494588        7.7381723341
 In        13.6843977439       10.4752273635       13.4353575105
 In        13.5281308411       10.3930515933       19.5410084553
 In        25.6521842834       16.4976505139       19.7192481711
 In        13.5981495866       13.5160118508       10.4856442417
 In        13.5345800801       13.4432631390       16.5185365367
 In        13.4631880254       13.2923238154       22.5292839859
 In        19.4004061391       10.3858501994       25.4149533857
 In        13.4398910807       16.5809943948        7.5039169634
 In        13.5249848163       16.5017878403       13.5214536247
 In        13.5369669632       16.4223924625       19.5605641903
 In        13.8484060870       16.5013090876       25.3445556822
 In        13.4449492472       19.5564040929       10.4768501966
 In        13.5246880120       19.5447159822       16.4945699961
 In        13.5229062112       19.4678270524       22.5954140786
 In        13.4506184095       22.6002637001       13.4556235281
 In        13.6091500563       22.5282727917       19.4685276197
 In        15.2687069710       22.4458384160       25.9207555233
 In        16.5795998672       10.4741466089       10.4029476697
 In        13.4451073985       25.5771989390       16.5888346910
 In        13.7668515963       25.4201851893       22.4534226386
 In        16.5114798330       16.4932539473       16.5046662130
 In        23.0130270403       10.5618634110       22.2861392756
 In        16.5075115427       10.3153415157       22.4447721208
 In        17.0816547663       19.4679134428       25.2465005653
 In        26.1531376466       18.5700504749       10.9672211857
 In        25.6582886133       19.4016343516       16.5860038274
 In        19.5435012647       13.4483644519       10.4018914508
 In        16.5149062013       19.4687865771       19.5493789130
 In        16.6713757611       10.4651180225       16.4150010005
 In        19.6389440700       13.5234767063       16.4235915870
 As        18.0093064796       23.8647143679       12.1033457991
 As        18.1453407612       11.9720158261       17.9371552869
 As        21.1997624445       14.7955975970       24.0218276393
 As        18.0566449663       11.8852755141       23.8916154090
 As        14.9498751799       24.0309562134       15.1086538057
 As        18.1299722546       23.9843379969       17.9992042576
 As        18.0491425243       20.9929814464       14.9967843281
 As        15.2124848291       23.9403704346       20.9901148160
 As        24.2062299158       20.9219609249       14.9582248825
 As        24.1184657296       14.9727853264       21.1175134733
 As        21.1829246684       24.0062879425       14.9296175465
 As        17.9076062801       14.9151240616        8.9367456162
 As        20.8865970441       17.8765912244        8.9649181551
 As        24.2562285699       24.0251177499       11.4935481449
 As        18.1385093465       20.9483236196       20.9782775499
 As        18.1004091617        8.9713865590       20.8453038856
 As        21.0834631264       17.9820285466       15.0412684420
 As        24.1664341125       18.0132745598       18.1512983125
 As         8.9807679425       11.9581286949       15.1723124633
 As        21.1374185760       18.0045517648       21.0440875118
 As         9.1647290529       15.0247910832       12.2645864580
 As         9.0733747170       14.9702301084       18.1197496582
 As        17.9078884129       20.9428612303        9.0172291757
 As         9.0630405257       18.1396665742       15.2196623522
 As         9.1339938314       17.9426193957       21.1125653512
 As         9.0516293588       21.0849215709       18.1477107233
 As         8.8375925819       24.3135917318       21.3327940014
 As        18.0344887399       15.0020714118       14.9932804466
 As        21.2228789617        8.9833697917       17.9080492024
 As        18.0729356939       14.8994704418       20.9760152373
 As        21.0127679945       20.8652955468       12.0163457720
 As        18.0003643919       17.9895418506       12.0026764346
 As        23.9580361340       17.8435917150       12.0128469937
 As        11.6765339783        8.6785164206        8.9295078739
 As        12.0897885827        9.1100614498       15.0037185374
 As        21.0982793968       20.9611558288       18.0468539058
 As        12.1048844642       12.0366483512       12.0599969920
 As        12.0405628807       11.9332316578       18.0462160978
 As        15.2515381108       20.8147103082       23.9936943781
 As        12.0328608939       15.0475314632        9.0561487028
 As        12.0357635853       14.9945529397       15.0559205501
 As        12.0404944826       14.9232429540       21.0907322905
 As        12.0149156703       18.0571422362       12.0461719793
 As        12.0840964311       17.9940889727       18.0520426069
 As        12.1248119476       17.9292171303       24.0848783357
 As        12.0197306176       21.0561707326       14.9951255364
 As        12.1480803336       20.9768862446       20.9782128680
 As        12.0223098470       24.0490416799       18.0918221922
 As        21.1577992731       12.0267675051       14.9032979321
 As        18.0310863630       17.9852813654       18.0302262157
 As        21.1591725297       11.9271559344       20.9912005575
 As        24.0637764578       14.9597395177       15.2877699517
 As        21.0668185358       15.0130551720       18.0454866766
 As        18.2590041810       17.6441130868       23.9602563768
 As        24.4050927738       11.5902245168       24.1834028993
 As        24.3923099883        8.6936818358       21.2184938315
 As        18.0794674553       11.9600974560       11.9331532408
 As        18.1979038741        8.9864818097       14.9083389137
 As        20.9932992674       14.9960459343       11.9610284658
 As        15.1064334607        8.9418519205       11.9410983300
 As        15.1530245129        8.9966589871       17.9897691398
 As        14.9387540896       11.9243203398        8.9658102603
 As        15.0908478993       11.9863271383       15.0027262713
 As        15.0516593139       11.8961971377       20.9981376316
 As        15.0445732451       15.0097375896       12.0212890889
 As        15.0497559057       14.9458649893       18.0280355571
 As        15.1023837042       14.7647790797       24.0043952996
 As        24.1296250512       11.9476774329       18.1241596752
 As        14.9557811491       17.9948475893        9.0195843089
 As        15.0280997362       18.0282175940       15.0017238380
 As        15.0487329132       17.9438078092       21.0894085567
 As        14.9537765808       21.0488565995       11.9891253082
 As        15.0816916616       21.0001507226       17.9961990819
 Cl        18.8112823051       23.9947843201        5.9876187209
 Cl        20.8820840690       26.6383655818       12.0589615718
 Cl        27.3004978070        9.5881016463       18.2742448704
 Cl        27.3460089118       12.8172029648       15.2039496027
 Cl        26.8091823418       12.0506473944       20.9891247099
 Cl        16.7186136700       27.1858217365       12.0599113572
 Cl        27.2923828382       16.5234702862       11.9659454745
 Cl        26.8808997899       15.0166574712       18.1215729580
 Cl        27.1288934087       14.6981919191       23.6531531021
 Cl        17.6418388509       27.1912223426       20.8057102369
 Cl        27.0753792016       18.8109731230        8.9002798513
 Cl        26.6860603069       17.8358949096       15.0019261515
 Cl        27.3312420030       17.7597065802       20.6337357098
 Cl        16.9950494223       21.0518784794       27.1483092626
 Cl        26.8156901437       20.7075862019       12.0854535190
 Cl        27.3272953780       20.7088349483       17.4581316835
 Cl        27.0569193517       23.6782687921       14.4108291192
 Cl        18.8823035999       26.9520011501        8.9056092127
 Cl        18.1025020450       26.6724525030       15.1479473601
 Cl         5.8942090786        9.1904431039       14.0384693942
 Cl        23.6156109248       20.8414923837        8.9794224882
 Cl         6.4044693506       12.4457583668       12.0713460806
 Cl         5.7004369971       12.3471848797       17.5850551249
 Cl         5.7824663279       14.2687568283        9.0233357341
 Cl         6.3471694389       15.1129910802       15.2218848958
 Cl         5.8491048699       15.4898697066       20.8114665950
 Cl        20.8889832694       27.0706463952       17.6632802865
 Cl         5.9752374762       16.6992533613       12.0758657521
 Cl         6.3372758168       18.0334075020       18.1914493140
 Cl         6.2368660052       18.8993488095       24.2064973411
 Cl         5.7364844377       20.3583595613       15.3954026850
 Cl         6.4431105995       21.0644932984       21.1435285021
 Cl        15.1168894652       26.7252277789       18.1029164087
 Cl         5.8665101599       23.5476170197       18.4526107388
 Cl        14.3922944549       26.8191496494       24.1411681680
 Cl        23.7533396931       26.9723225055       14.3777132867
 Cl        20.7431202171        5.7556160157       15.2107908321
 Cl        21.2172489834        6.3284839482       21.0190340689
 Cl         8.8563944799        6.1025069981       14.2131402275
 Cl         8.9777505054        9.5493773547       11.9391543618
 Cl         9.3352429381       12.1181679346        9.2146544881
 Cl        12.2990902476        8.7731162598       20.6350227685
 Cl         8.9344369801       14.2809905927        6.1261625209
 Cl        18.2053632626        6.2619427625       17.8812731543
 Cl         9.2147735640       18.7972481239       27.1535845450
 Cl        18.8325284315        5.9463060378       23.9046823830
 Cl        12.1037553024       20.7572327586        9.0281341458
 Cl         9.3217929131       21.0413933379       23.6746820082
 Cl        20.9470633152       23.5541905657        9.0665246322
 Cl         9.6730341158       27.2648269442       18.4558777684
 Cl        17.7023439264        5.7074421285       12.3227054097
 Cl        20.3106237342       17.6931114428       27.2922467608
 Cl        20.9563784839       20.9712469703        6.2659300712
 Cl        18.1760708579       14.7340841923       26.7585001512
 Cl        17.8951709523       18.0003033545        6.2386990136
 Cl        20.9216307041        9.1156557784       23.6778868499
 Cl        12.1306958709        6.1984699746       12.2991150191
 Cl        15.5760025161        5.6262685359       20.3973965601
 Cl        17.5713392687       12.5616485682        5.6203230047
 Cl        11.8765436063       11.9188091789        6.4303599570
 Cl        12.0781628829        5.7872872772       16.3602471510
 Cl        12.3856463035       16.5411956281       27.3340001756
 Cl        12.2101378330       17.5629466039        5.8361167992
 Cl        23.9301680315       18.8453502023        5.8278624604
 Cl        23.6188874224        5.8226563927       18.3004954962
 Cl        15.4736450207       20.7777144108        5.8122368056
 Cl        12.7446587525       20.5017882232       27.0935833350
 Cl        20.7321114728       23.9625542370       20.9876067399
 Cl        15.5507928575       24.2229407274        9.1639100793
 Cl        12.1925596232       23.8094703412       23.6393239752
 Cl        12.7644589100       27.3818709320       15.3489504997
 Cl        12.1525068485       26.6506457652       21.1014860827
 Cl        14.3324118572       23.9500391262       27.3307325843
 Cl        21.1480193026       11.6238478284       26.5579791116
 Cl        20.6588201400       15.7016543487        5.6214652384
 Cl        21.0814983214       12.5331658641        8.9394176161
 Cl        18.7754520286        8.7271721681       26.8385573819
 Cl        23.3661020951       14.4399514772       27.2204963251
 Cl        14.4560538460        5.7593887622        9.4936032692
 Cl        15.2289860806        6.3228859917       15.0204493505
 Cl        14.4709134374        9.3667712411        5.9148535501
 Cl        15.5455576559       12.2260121823       27.2543136684
 Cl        14.8875194906       15.0005375495        6.2455610308
 Cl        15.5316645556       17.8363505535       26.5736871750
 Cl        19.4304980436       20.8829104566       24.4614157728
 Cl        24.5992263332       13.8474165706       12.0742998202
 Cl        15.4452143470        8.8437013285       23.8658939008
 Cl        24.1436761352        9.4538570533       15.0000625759
 Cl        21.0736662753        9.2365377712       11.9942508403
 Cl        17.8541519557        9.2208454704        8.9432622334
 Cl        24.0362502257       15.6888145306        8.7648651358
 Cl         8.5100660454       16.8266236635        9.3563593369
 Cl         8.9128117379       20.5303037347       12.1268107771
 Cl        12.3341596427       24.1539304158       12.1676595206
 Cl         9.1481681342       23.9131204469       15.3125371217
 Cl         9.2387263177        8.7235835884       17.6540352725
 Cl         9.0512360949       12.0478252509       20.7744039682
 Cl        12.2229357620       12.0171726246       23.9936877446
 Cl         9.1924118208       15.2085325594       24.1465750529
 Cl        16.9999117069       23.8042936198       24.5252242811
 Cl        23.5704460181       17.9971927106       24.0770237519
 Cl        23.8010189606       21.1528442036       20.8656550490
