      35
 i =       10, E =      -898.6437408522
 Hg        10.1703345003       15.4144652551       10.1805407571
 Hg        10.1921173257        7.5804860246       12.8229117881
 Hg        13.1148273131       13.1247718261        9.8721711959
 Hg        15.4167752410       12.8278022902       12.8104406094
 Hg         7.5762292283       12.8082160760       10.1863818875
 Hg        12.8106176773       15.4210504264       12.8131086966
 Hg        12.8136794061       10.1822085551        7.5791822279
 Hg         7.5858758620       10.1740004132       12.8253759167
 Hg         9.8763180502       13.1186673638       13.1229841036
 Hg        13.1275269956        9.8840970354       13.1189185145
 Hg        10.1714150829       12.8119131759        7.5815843835
 Hg        10.1906522927       10.1820171324       15.4216016206
 Hg        12.8208024730       12.8231144025       15.4158902515
 Hg         9.8773218565        9.8718902561        9.8805768678
 Hg        12.8243622555        7.5842203821       10.1820319604
 Hg        15.4185495382       10.1901600362       10.1755059963
 Se        11.4989776704       11.4999293684       11.4987405550
 Se        11.3360255541       14.7444793313       14.7413202311
 Se         8.2606912215       11.6562842349       14.7484386092
 Se        11.6733554590        8.2599062603       14.7449551229
 Se        11.6474664102       14.7412080705        8.2527154232
 Se        11.3402684582        8.2538288654        8.2583545620
 Se         8.2491275707       14.7358484487       11.6634943696
 Se        14.7371297566       11.6659651681        8.2498685675
 Se        14.7348126565       14.7501592338       11.3304991090
 Se        14.7484036776       11.3481191888       14.7378637572
 Se         8.2625352568        8.2491358458       11.3461780490
 Se        14.7503717755        8.2646478942       11.6577906151
 Se         8.2504663747       11.3289575882        8.2607278618
 Cl        11.4902537874       11.4961655615        5.7436941662
 Cl         5.7447123538       11.4872070401       11.5086075662
 Cl        11.5116717202        5.7460170840       11.5030601394
 Cl        11.4868238116       17.2541203449       11.4955183975
 Cl        17.2541969458       11.5127057341       11.4904097705
 Cl        11.5083692275       11.5039181124       17.2556630634
