      35
 i =        8, E =      -988.6853803306
 Cd        14.7241810996       19.9304838311       14.7329354893
 Cd        14.7425896707       12.0641562451       17.2708778054
 Cd        17.5497451038       17.5601478933       14.4363387814
 Cd        19.9331824309       17.2749088898       17.2592677147
 Cd        12.0597057493       17.2584481742       14.7363344008
 Cd        17.2603416595       19.9372997058       17.2631898300
 Cd        17.2631231391       14.7328030424       12.0626086432
 Cd        12.0696132852       14.7272858878       17.2718602585
 Cd        14.4402833161       17.5541772533       17.5591170352
 Cd        17.5630958364       14.4487716335       17.5548614026
 Cd        14.7247283513       17.2609552667       12.0647212884
 Cd        14.7406642883       14.7327335090       19.9387509372
 Cd        17.2687598809       17.2706264038       19.9327260271
 Cd        14.4414614564       14.4362627960       14.4441554516
 Cd        17.2718793285       12.0680132224       14.7338096290
 Cd        19.9352658767       14.7413501218       14.7274012807
  S        15.9985932072       15.9998301399       15.9984702848
  S        15.8944600058       19.0536274052       19.0513404545
  S        12.9505236993       16.0980120731       19.0578659601
  S        16.1134916172       12.9505091210       19.0538761552
  S        16.0908706257       19.0515900503       12.9429093128
  S        15.8983329144       12.9444440605       12.9478956701
  S        12.9406930479       19.0458976672       16.1048552111
  S        19.0472557593       16.1071934979       12.9410584059
  S        19.0447620884       19.0581677953       15.8896471661
  S        19.0573995691       15.9054617704       19.0484868184
  S        12.9521217330       12.9403696655       15.9031615584
  S        19.0589004955       12.9545602826       16.0996458564
  S        12.9419663476       15.8888389837       12.9503228063
 Cl        15.9905709165       15.9953708081       10.3023209769
 Cl        10.3034558417       15.9885253482       16.0073848367
 Cl        16.0119821144       10.3048004795       16.0041356945
 Cl        15.9877260846       21.6951691676       15.9970457230
 Cl        21.6958165245       16.0131236669       15.9898902529
 Cl        16.0080048011       16.0029114254       21.6972821493
