     381
 i =       87, E =    -13496.4927061610
 Zn        15.1891548171       20.4612249291       15.1717151572
 Zn        17.8986725491       23.1814240613       15.0959764280
 Zn        20.5483693371       25.8220701310       14.9375665327
 Zn        15.5969856268       23.0134108601        7.4229305505
 Zn         7.1803935319       12.3787943609       14.9322907076
 Zn         9.8325431164       15.0853295861       15.0887820604
 Zn        12.5358371723       17.7455672584       15.1753096940
 Zn        17.8165134022       20.4707070961       17.7456260552
 Zn        20.5319033975       23.1709405736       17.7213182376
 Zn        23.0108343616       25.5747927471       17.3963154689
 Zn        12.2929594923        9.5802306421       12.2170364648
 Zn         7.4342645016        9.9810691134       17.3893570975
 Zn         9.9053177611       12.5336843549       17.6546224515
 Zn        12.5369213795       15.1709129255       17.8061652059
 Zn        15.1807849893       17.8208426033       17.8188461783
 Zn        20.4610897252       20.4606166450       20.3765597936
 Zn        23.3420090804       23.3458776887       20.5476311882
 Zn        15.0871458271       12.3786742197       12.3810334406
 Zn         9.5840766418       14.7673874315        9.5734195718
 Zn        10.1434538897       10.0676913388       20.2154618869
 Zn        12.6200155031       12.5327246645       20.4573543259
 Zn        15.2527263131       15.1742585046       20.4610737137
 Zn        17.8273807166       17.8126896109       20.4527684229
 Zn        22.9279872898       20.2198836389       22.8520897741
 Zn        17.9100074874        9.8128627523       17.8929801819
 Zn        12.4540162571        9.6493580539       23.3369091672
 Zn        15.3391456238       12.4594322757       23.0987724786
 Zn        17.9097000277       15.0859968016       23.1097527980
 Zn        20.4653231505       17.6605335007       23.0869848703
 Zn        20.6232397014       12.3814556357       17.9086946594
 Zn        25.8277104056       14.9995178753       20.5285629377
 Zn        20.5309717894       15.1776916260       15.1731406523
 Zn        20.2910119559        7.3475374171       12.7926798299
 Zn        20.6135878965       20.6197664631       15.0130982446
 Zn        18.0661340248       12.3846946703       25.8183107993
 Zn        20.6193001726       14.9334679216       25.8165250950
 Zn        23.0214526991       17.3965428937       25.5604916864
 Zn        17.8204427701       15.1840064886       12.5255778045
 Zn        17.7450621880       15.1936216053        7.1689548904
 Zn         9.9964046041        7.4245213991       17.3953315530
 Zn        12.4513931520       14.9314285640        7.1726604895
 Zn        20.2860589440       10.0635577376       10.0649819551
 Zn        15.1972934935       17.7436768330        7.1699207850
 Zn        25.5692340915       23.0196394357       17.3964536868
 Zn        20.7854282736       12.2235333315       23.3483455129
 Zn        25.8238663950       18.0639604738       12.3844285057
 Zn        12.8744545024        7.3494555708       20.2155595576
 Zn        12.4540596173       12.3859810630       15.0138263269
 Zn        23.4180008996       18.2272597417        9.5667756771
 Zn        23.1842928621       15.0943898522       17.8272014488
 Zn        15.1608433246        9.8166318937       15.0925900691
 Zn        15.6021640469        7.4247512162       23.0105607863
 Zn        18.1516996965       23.4184805379        9.5719290503
 Zn        17.8882400554       17.8300613041       15.0956147888
 Zn        15.2626989512        7.1706538442       17.7381230603
 Zn        18.2292687588        9.5706472990       23.4136164570
 Zn        10.0695634599       20.2123209682       10.0644079771
 Zn        12.7147609146       22.9335094751       10.0659353722
 Zn        15.5874299034       25.5712054080        9.9851118055
 Zn         7.4286782658       17.3888469946        9.9830106583
 Zn        12.5317988147       20.4541650809       12.5516311062
 Zn        15.2733340487       23.1062523374       12.5363220768
 Zn        17.9900133149       25.8241569988       12.3879848030
 Zn        14.8488489545        9.5741946571        9.5735503349
 Zn         7.1772230020       14.9308488812       12.3822778373
 Zn         9.8976981983       17.6531913885       12.5357630220
 Zn        15.0900207238       23.1750527945       17.8264968873
 Zn        17.7410308958       25.8295076465       17.7326226128
 Zn         7.1765390674       15.1880034091       17.7398904318
 Zn         9.8245446004       17.8884856090       17.8359797611
 Zn        12.4465716970       20.5435162222       17.9086452348
 Zn        17.6571945316       23.1011872718       20.3816959618
 Zn        20.2179822195       25.6532383323       20.1225750246
 Zn         7.4194713899       12.7888811177       20.1991696239
 Zn         9.8982979655       15.2746627911       20.4502822023
 Zn        12.4466126559       17.9058749721       20.5387946800
 Zn        15.0282502480       20.5559598013       20.5326685945
 Zn        20.2223533940       22.9279346153       22.8487087331
 Zn        20.4703732366       17.8139724747       17.7499109220
 Zn        20.2077693581       12.7954669847        7.3482669900
 Zn        20.4698332924       12.5384996315       12.5531723887
 Zn        17.8273207881       12.4692246932       15.1816096052
 Zn        10.0820102321       12.7116894393       22.9331895454
 Zn        12.5473538133       15.2672251061       23.1021162120
 Zn        15.1077640257       17.8872839392       23.1194273614
 Zn        17.6611333936       20.4547034649       23.0297421954
 Zn        23.3461781969        9.6487232787       12.3769187813
 Zn        12.8661815952       12.7201367996       25.5795256515
 Zn        15.2652073677       15.1853147094       25.7546258339
 Zn        17.8068563900       17.7400837596       25.7528189998
 Zn        20.2045525870       20.2069114949       25.5694278384
 Zn        20.6128207260        7.1693676176       17.9870354852
 Zn        20.5451954538        9.8273047349       15.2602334294
 Zn        23.4150118409       23.4325587406       14.7724009886
 Zn        12.5540608421        9.8847030812       17.6598273302
 Zn         9.6524577516       12.2181947653       12.2214485188
 Zn        22.9341490283       12.7814123089       10.0691340143
 Zn        25.5725562711       15.6024711628        9.9838709918
 Zn        20.4597876421       15.3400273208        9.8933095372
 Zn        17.4058319457        9.9810405962        7.4244830497
 Zn        23.0198275270        7.4253178520       15.5841186807
 Zn        23.4192884132       14.8426352873       23.3456944397
 Zn        23.4293902247        9.5764447246       18.1471512659
 Zn        20.5457065326       17.9940636998        7.1729051274
 Zn        23.1849914346       17.9088438560       15.0922846079
 Zn        23.1695343820       12.4586477261       15.2535951603
 Zn        17.8925317234       17.8961426230        9.8202405723
 Zn        25.8220585549       20.6191543961       14.9338302752
 Zn        17.9888202088       12.3806769449       20.5460285391
 Zn        15.1892500055       12.4688889210       17.8124914110
 Zn        25.8309439788       15.2014869705       15.1836941621
 Zn         9.6505589335       23.3396766826       12.3847957415
 Zn        12.7070210692       25.6442562436       12.7969313456
 Zn         7.3539114127       20.2204431497       12.8020629691
 Zn        12.4578663629       23.1067953254       15.2597332893
 Zn        15.1827518246       25.8256986347       15.1849382379
 Zn        17.8971173077       15.1043649979       17.8226353711
 Zn        20.6136442098       17.9815474432       12.3799998458
 Zn         7.1714697358       17.7382445713       15.1858305089
 Zn         9.8896099303       20.4678064920       15.2558291381
 Zn        14.9328159032       25.8224399614       20.5376911258
 Zn         7.1822175814       17.9860431957       20.5390155791
 Zn         9.6489859452       20.6984201223       20.7026364923
 Zn        12.2228444057       23.3490135408       20.7008826787
 Zn        17.3929900818       25.5714794952       22.9361753210
 Zn        25.6528054327       12.7199880737       12.7897013826
 Zn        15.3279702119        9.8253515645       20.5287599481
 Zn        17.7280094726       12.5352558460        9.8924587012
 Zn        15.1901617502       17.8119073905       12.4761450829
 Zn        17.9852496993       20.5441447593        7.1730526077
 Zn        23.0166746346       15.6118326129        7.4235371936
 Zn         7.4277940094       15.6021135701       23.0147635425
 Zn         9.6543272045       18.1482058883       23.3472775582
 Zn        12.2906692106       20.7059029296       23.3480941014
 Zn        14.7769056613       23.4122783147       23.3519603967
 Zn        12.2881042318       12.2165986560        9.5793876819
 Zn        15.1733172105       15.1015755172       15.1075528509
 Zn         9.9987700579       15.5901393176       25.5692864430
 Zn        12.4592783511       17.9879886984       25.8162351593
 Zn        15.0109017207       20.5468315559       25.8112273770
 Zn        15.2785312911       20.4604494340        9.8890449589
 Zn        20.7114281681       20.7688248165        9.5720745061
 Zn        17.9620891765       20.6074209112       12.3819171084
 Zn        12.4598227305        7.1731356224       14.9396348471
 Zn        23.1086270703       20.5370186241       17.6647816366
 Zn        20.7851904361        9.5794572337       20.7106738494
 Zn        23.4247906798       12.2258105950       20.7071685422
 Zn        15.0133523691        7.1698054079       12.3890185400
 Zn        20.6182307904       15.0184574221       20.5394055565
 Zn        20.7084370489       23.3627005700       12.2233640423
 Zn        23.1100282757       15.3377697356       12.5389086449
 Zn        15.0092854922       12.3845868223        7.1702213346
 Zn        18.0627013502        7.1719316892       20.5476307343
 Zn        17.8194368482        7.1677474286       15.1884581477
 Zn         9.9819504035       25.5647267621       15.5856070517
 Zn        23.1043439258       17.6677349708       20.3803625841
 Zn        25.6467106734       20.2844506530       20.1260237125
 Zn        17.7339201933        9.8857831323       12.5321400925
 Zn        25.8321318724       12.3902050744       17.9847019129
 Zn        12.3820546240       25.8183585241       17.9874226297
 Zn         9.9889064378       17.3264792229        7.4243843266
 Zn         7.1757328898       20.5425559629       17.9832501043
 Zn         9.5783908513       23.3485315548       18.1454925032
 Zn        12.4464901129       15.0117929293       12.3858045136
 Zn        12.7885748001       20.1988549761        7.3516109800
 Zn        23.3553592456       20.7802384177       12.2167245788
 Zn        25.5713436265       17.4064350400       22.9381979163
 Zn        12.5338267096       17.6549826378        9.8921381390
 Zn        25.8278361754       17.8140316590       17.7294646751
 Zn        15.1090424254       15.0943617932        9.8236803074
 Zn        17.4131943582        7.4266967626        9.9846232866
 Zn         9.6462385232        9.5786277394       14.7769346834
 Zn         7.4305561747       22.9984982385       15.5192619701
 Zn        15.6037520507        9.9820253983       25.5689435486
 Zn        17.3892820801       23.0160368732       25.4956538399
 Zn        25.5763793576        9.9793620762       15.5246365749
  S        16.4156803882       21.9424914899       21.8841557243
  S        19.2188196942        8.4132223561       16.4992064899
  S        19.2395995157       21.9508151081       13.7224817684
  S        19.3420930670        8.2851940596       21.9522631424
  S         8.4320649434       16.4823124243       19.1599810758
  S        24.5953700816       16.5467713288       13.7788562991
  S        24.6185126436       13.8269397451       11.0980917335
  S        16.5542665620       13.7549934864       19.1833687441
  S        13.7951859499       19.1699598779       11.1012900935
  S        13.7981409915       16.4451826235        8.4166163930
  S        21.9391896059       24.6957919948       13.6506812440
  S        11.1251167732       13.7993939613       24.5961295942
  S         8.2997461305       21.9143810457       19.2869580729
  S        11.1411140336       13.7839173777       19.1736195190
  S        21.9391196060       19.2988206386        8.2712390415
  S        19.1697455867       21.9077528142       24.5405420208
  S        21.8757591990       19.1736314928       19.1120622535
  S        13.7563551538       21.9226267988       19.1972000776
  S        16.4355119678       24.5860071492       19.1474804428
  S        13.7164009764       10.9838192378        8.2603982792
  S         8.4177143891       19.1649356390       16.4735307522
  S         8.2714984175       24.6854388819       16.6128117577
  S        19.2454969650       19.2561740216       11.0302726361
  S        19.2538975587       21.9751230789        8.2615088267
  S        16.5057157135       24.5777140168       13.7823199365
  S        16.5012900852       13.7435679486       13.7567714212
  S        13.7751347568       13.7131627123       11.0322898901
  S        16.5327940591       16.4667282081       16.4568995074
  S        11.0802478056       13.7291737241       13.7315700753
  S        19.2780750188       24.7060069261       10.9959952611
  S        19.2098040442        8.3835930011       11.0864716264
  S        13.7544773541       19.2226951132       21.8937362224
  S        19.2056030932       11.1020539643       13.8163168163
  S         8.2991006437       16.6337045766       24.7118662881
  S         8.4192090412       13.7694415180       16.4400165198
  S        13.8034139446       19.1669120930       16.4939777420
  S        16.4940439992       21.8839780375       16.4595483556
  S        21.9697182703       13.7406145624       19.1963285511
  S        22.0112766412       13.6919917466       24.6540827683
  S        13.8306904715        8.4151064783       16.4418628721
  S        16.5083686601       16.4839486314       11.0931256853
  S        21.9045951528       24.5709878681       19.1446659698
  S        13.7229919375        8.2654880994       10.9852775931
  S        19.2269777109       16.4324278121       24.5462252265
  S        11.0845496814       19.2003063015       19.2061346293
  S        24.5560901938       11.0710034570       13.7903750142
  S        24.7175293899       24.7282730177       16.3361480514
  S        21.9169166627       19.1713730312       24.5617358083
  S        21.9102461129       13.8152465977       13.8056711323
  S        16.4886659997       19.2037907350       19.1737687895
  S         8.4632598334       21.8761283340       13.8001803128
  S        21.8617762837       21.8620077455       21.7600448982
  S        13.8235632614       16.4942785117       19.1906779956
  S        11.0511287081       16.3969908083       11.0373712158
  S        16.5192559824       11.0884220837       16.4937319104
  S        16.3891042472        8.2529181749        8.2530121065
  S        11.0577994177       21.8960416709       16.5612357144
  S        21.9598702950       16.4380281219       21.8999641251
  S        13.8086035079       16.4400702445       13.7469981836
  S        16.4939692822       19.1775140719       24.5325058717
  S        13.7652928115       24.5719358934       16.4781974643
  S        19.2004947706       19.1808780048       21.8461915224
  S        19.1544495182       24.6024920836       21.8192553691
  S        16.4770121089       11.0257329058       11.0227597483
  S        16.5338388608       19.2068002002       13.7464457505
  S        11.1483204344        8.3768341716       19.1548752749
  S        11.0880415913       19.1414483173        8.3763097313
  S        16.6348549272       11.0320497061       21.9204380821
  S        21.9053193009       16.5086021989       16.4651320026
  S        11.0026970023       24.6672649038       19.2655205905
  S        24.5761807796       19.2360483606       16.4409096379
  S        16.5314162190       21.9529990774       11.0329657825
  S         8.2975286740        8.2801288686       16.3459522351
  S        13.7975826715       21.9108897559        8.3827491086
  S         8.2612054384       16.3268940104        8.2724663996
  S         8.3235160176       10.9940608921       13.6597578004
  S        24.7365018938       10.9961585726       19.2822024161
  S        21.9544017417       19.2640276983       13.7225889151
  S         8.4098303669       13.8076789534       21.9195740448
  S        24.7019832493       19.3499561511       10.9932443836
  S        19.1694461109       16.5051958344        8.4070173354
  S        16.4802824029       13.7741014603        8.4210277588
  S        13.8900503104       11.0754112580       24.5055212793
  S         8.3246668573       19.2525663021       21.9324822528
  S        13.8305129660       16.5054213007       24.5442286138
  S        13.8772498095       13.8173201951       21.8680709605
  S         8.4318036417       11.0778952208       19.1638177607
  S        11.0692788373       24.5354370639       13.8242847862
  S        16.5436726468        8.4043628094       19.1788228240
  S        13.8590356832        8.4323967679       21.8975963827
  S         8.3970747444       19.1457637097       11.1015519329
  S        11.0227127132       21.9414345155       21.9654295191
  S        22.0235168134       10.9913254083       21.9478466404
  S        11.1171906977       16.4596034279       16.4841864846
  S        11.0465311902       10.9781415844       10.9786404253
  S        21.9637620447       16.5786828872       11.0269403427
  S        13.7278736355       21.9353584544       24.6671401404
  S        24.5907579785       16.4768601384       19.1286029406
  S        11.2265947317       11.1244786967       21.8565712396
  S        21.9637796117       22.0050751879       10.9557948290
  S        24.7338955252       16.3904231789       24.6724789042
  S        19.2563438404       16.5147234574       13.7470444297
  S        19.2876756821       11.0380350436       19.2135210434
  S        16.5060380499        8.4079760367       13.7726851539
  S        11.0544477484        8.2693013899       13.6491340025
  S        11.0681575986       19.2624154258       24.6731995207
  S        22.0135346337        8.2669369477       19.2788328485
  S        19.2777054459       13.7367201964       21.8948642008
  S        13.8116473415       21.8610552448       13.8182536316
  S        19.2318401397       16.4668590804       19.1792397371
  S        21.9361272662        8.4386479616       13.8147051707
  S        16.5753070588       13.7693014186       24.5380838697
  S        13.7922285739       11.0302331557       13.7238585717
  S         8.2996293529       13.6366646461       11.0003400727
  S        19.1667011311       21.8808265702       19.1199159259
  S        21.8825641965       11.1468599344       11.1755123807
  S        19.2235241187       19.2188380854       16.4115476577
  S        16.6085122000       24.7424191071        8.2531246414
  S        11.0701175539       11.0407711520       16.4053409365
  S        21.9339915877       21.9798176104       16.3854472376
  S        19.2477989759       13.7591425789       16.4862864739
  S         8.4159525194       16.4278134583       13.7750300541
  S        11.1360649424       19.1287846934       13.8114369107
  S        19.2018405334       13.8205089906       11.1116406781
  S        24.6095702424       19.1780843484       21.8143552787
  S        24.5944230581       13.7815560806       16.4790738886
  S        21.9766516645       11.0296732339       16.5463365305
  S        16.6622661280        8.2755695547       24.7167238976
  S        19.1871317748       24.5843543393       16.4638213738
  S        16.5279412897       16.5031946162       21.8616742154
  S        24.7481003256        8.2726973818       16.6013639477
  S        24.7170390737       13.7095928551       21.9243025448
  S        24.6973731769       21.9989102841       13.6355908465
  S        11.0780505147       16.5266660237       21.9185552012
  S        24.5308177647       21.9214640369       19.1184027734
  S        16.4872160110       19.1766095970        8.4164283663
  S        16.3537893446       24.7285749419       24.6534029812
  S        13.6486395556       24.6952431342       21.9269111807
  S        11.1180893602       21.8423508364       11.1766643137
  S        13.7936953672       24.6063234142       11.0941802993
  S        13.8507689678       11.0785228259       19.1742092310
  S        19.3657698890       11.0085327487       24.6951524458
  S        21.9035493586       13.8328735994        8.3821787243
  S        19.1990454839       11.0831123877        8.3819311961
  S        24.7289007707       16.6445283680        8.2667059653
  S        11.0387257465       13.6597546839        8.2787647727
  S        13.8021983526       13.7574201458       16.4577693113
 Cl        21.7854232647       16.4524341349        5.8044657607
 Cl        27.2056244566       13.8635244120       19.0899433743
 Cl        19.1652752193        5.7825349839       19.1035613572
 Cl        21.8160204115       16.5249713644       27.1739721998
 Cl        16.5539666875        5.7921351291       11.1736258858
 Cl        27.1945149564       16.5142181485       16.4520929701
 Cl         5.8267754540       21.7766028803       16.4380084110
 Cl        11.1712292395       27.1995953257       16.4614591889
 Cl        13.8931705689        5.7799488598       13.8258859035
 Cl        27.1902174824       16.5058946164       11.1678079937
 Cl        10.9746697451        8.5826679094       24.4763760431
 Cl         5.8152162900       16.4291104121       21.7763045871
 Cl        19.0940191711       27.2283734198       19.1058886395
 Cl        13.8349640349       27.2217000934       13.8103472700
 Cl        16.5114276887       11.1902890468       27.1800688201
 Cl        13.8832650862        5.7735365058       19.0864817970
 Cl        16.5629223172       21.8041036110       27.1396040870
 Cl        16.5253794864       16.4832495534       27.1428905881
 Cl         5.7884025976       13.8185683941       13.8275661653
 Cl        11.2152097257       16.4882858729        5.8060664546
 Cl        21.7910626917       27.1768237561       16.4822760647
 Cl        16.4791342390       16.4769228474        5.7862592800
 Cl        16.4232472362       21.7763761464        5.8056006523
 Cl        27.2118757263       19.1703387828       13.8228044568
 Cl        16.4596295353       27.2089219532       16.4597846905
 Cl        24.4167889367        8.5408116174       10.8754282290
 Cl         5.7917589967       19.0854869270       19.0986458714
 Cl        27.1934054913       11.1870164137       16.4254555736
 Cl        16.5244080599        5.7882760226       16.4520749396
 Cl         5.7777876608       19.0882153971       13.8137833471
 Cl        16.5096398297        5.8200343514       21.7934721308
 Cl        19.1548617156       19.1341090522       27.1522166432
 Cl        13.8971095250       19.1135048233       27.1999065914
 Cl        21.8171264006        5.7925716093       16.4464523810
 Cl        16.5649870640       11.1894439963        5.7917393094
 Cl         5.7919207075       16.4552555612       16.4650946674
 Cl        16.4907601431       27.1894839302       21.7503842999
 Cl         5.8105410949       16.4843644052       11.1704684514
 Cl         5.8164748212       11.1822585830       16.5110628557
 Cl        13.8214829847       27.2104555423       19.1019385353
 Cl        13.8962856992       13.8343660342        5.7828944200
 Cl        16.4447384378       27.2028671198       11.1761422615
 Cl        24.4549210549       24.4457108567       22.0228215105
 Cl        19.1010235219       27.2115353339       13.8278461131
 Cl        27.2234306919       13.8624368052       13.7999652989
 Cl        27.2026401769       16.5402393547       21.7480851684
 Cl        27.2226137130       19.1582421659       19.1053604473
 Cl        27.1878832474       21.8299305556       16.4774508367
 Cl        13.8835015601       13.8501501272       27.1561848595
 Cl        13.8397336686       19.1167739979        5.7736922568
 Cl        11.2249534979       16.4474258840       27.1809402408
 Cl        19.1723130123       13.8464099845       27.2035100671
 Cl         5.8129310291       13.8132022701       19.1309687014
 Cl        11.2067996562        5.8204484366       16.4943815251
 Cl        19.1330217539       13.8512448492        5.7693492324
 Cl        19.1586931229        5.7730261761       13.8080807821
 Cl        19.0961357697       19.1050607393        5.7842104098
 Cl         8.5659908143       24.4409525157       10.8901435489
