      51
 i =      126, E =      -514.5629051393
 Cl        12.6285529939       12.5754698449       12.5346016723
 Pb        18.6671899664       18.7636506397       15.5440296031
 Pb        12.4155607246       15.3013202285       18.8380843713
 Pb        18.8931275473       12.5629045096       15.3565039103
 Pb        12.1066490300       18.4371366248       15.6426349758
 Cl        12.4093050138       18.3958246418       12.7326103581
 Se        18.6572604967       15.4852201955       15.4218756100
 Cl        18.4680808617       15.4768285027       21.4589322239
 Pb        15.6070377041       21.6552343393       15.6907408288
 Pb        15.6870999434       12.1293440563       18.5497320303
 Se        15.3085839368       15.6046163802       12.3503920898
 Cl        18.4535311214       12.7583547219       12.4428777463
 Pb        18.6200662970       15.5212114692       18.7285073066
 Cl        12.5460611093       18.2415986505       18.5568420389
 Cl        15.1418767619       21.5956380371       12.8978027556
 Cl        21.4212825083       18.4979848004       15.5633731261
 Cl        12.5320044995       15.5213660316        9.5408580843
 Cl        18.5907795562       12.6046062096       18.2669078881
 Pb        18.5844821704       15.6988763836       12.1617312392
 Cl         9.5787015825       12.5012485538       15.4390524936
 Cl        15.8598588892        9.4045522665       18.1015603837
 Pb         9.3600133742       15.2794698278       15.9378560621
 Cl        18.1701476195       15.6846282964        9.4262618493
 Cl        15.7166577416       12.3345043925       21.3930871596
 Cl        21.4224534727       15.8121768720       12.3964776346
 Cl        12.8294965656       15.3137046902       21.5735877985
 Cl         9.5773491159       15.1903285571       18.6030462856
 Se        12.3429919793       15.5148495709       15.5779260965
 Se        15.4061149165       18.6475106175       15.7228903549
 Pb        15.3571109803       16.0020040589        9.3633779795
 Pb        12.3797780119       15.4787509393       12.2712680318
 Cl         9.3887380784       18.1359875973       15.6453447987
 Cl        15.2831008949       18.6651716836        9.6064512239
 Se        15.5938927470       12.3525371719       15.2767166702
 Cl        18.2360858528       18.5815051441       12.6388010170
 Cl        15.6916195277        9.5786692665       12.4635629187
 Cl        15.3044755336       21.4214716536       18.5357591116
 Pb        15.3931789569        9.3447698024       15.3088886668
 Cl        12.7639797609       12.4184498897       18.3611126478
 Pb        15.5000177977       15.5000239109       15.4999284040
 Pb        21.6403108905       15.7203721528       15.0616398590
 Cl        18.3709006728       18.4248317731       18.4653042665
 Pb        15.3132119182       18.8707337629       12.4498608865
 Cl        21.6112311709       12.8636179892       15.3515605962
 Se        15.6910794624       15.3954380983       18.6493288362
 Pb        15.6427241864       14.9974923213       21.6364660469
 Pb        15.5631418297       12.3082231439       12.3447188803
 Pb        12.3327141305       12.2359917016       15.4564951353
 Pb        15.4360138958       18.6920097013       18.6548906633
 Cl        12.7205276520        9.4125864296       15.3863163079
 Cl        18.2798234949       21.5870706675       15.6156841554
