     149
 i =       44, E =     -3634.5584798511
 Hg        12.6177630651       13.9458874795       11.4218628750
 Hg        12.6105370782       11.1878502260       14.6957439721
 Hg        10.6196587460       14.9410922069       15.0525389992
 Hg        16.5246207095       16.5069889594       10.2414699356
 Hg        16.4266036653       13.4596899676       13.8187986170
 Hg        13.9985280343       17.4678654803       14.0280928995
 Hg        16.4955933007       10.4449147603       17.4429746302
 Hg        13.9798492925       14.3380647078       17.7342552805
 Hg        11.7906485360       18.0883259034       17.7083824532
 Hg        20.1200369267       16.0809376222       12.9342111730
 Hg        17.8192266160       19.9554401765       13.1656185852
 Hg        20.1067084683       13.0093824700       16.5830128749
 Hg        17.7516897879       16.9666247119       16.8032383657
 Hg        15.1422754959       20.6700601385       17.1021574430
 Hg        17.7853020388       13.8856955141       20.3582312673
 Hg        15.1148023017       17.9141021006       20.3787512062
 Hg        11.9411354029       10.8150289992        8.8807058463
 Hg         9.4615037690       14.9174794896        9.0296911868
 Hg        11.9279592972        8.1557724528       12.0375117696
 Hg         7.9673423568       11.5283622319       12.1737051343
 Hg         7.0552626251       15.8684978205       12.4589918338
 Hg         9.4250517543        9.0068343707       16.0409609455
 Hg         7.0351960099       12.5529900137       16.3815733033
 Hg        15.1580158820       12.9228413184        8.0555471348
 Hg        12.6053583368       17.2052121522        7.9269960856
 Hg        15.4434151376        9.7156377622       10.6583458542
 Hg         9.9361649560       18.3590642782       11.1993187316
 Hg        15.1264224497        7.6914379841       14.2584788525
 Hg         8.0411137633       18.8184666346       15.0666504812
 Hg        12.5472270323        8.2968450407       18.4839999962
 Hg         9.8948414855       11.7262652921       19.0662544975
 Hg         8.0231484722       15.6269860663       18.8437845924
 Hg        18.9206892138       14.1678655749        6.7809359033
 Hg        16.0550505985       19.3753021497        7.4774333020
 Hg        18.9946666480       12.2279999244       10.0700048747
 Hg        13.7217159184       20.5420098972       10.5035449914
 Hg        18.9744530797        9.5534605799       13.2669353923
 Hg        11.1598416123       21.6137386403       13.9442553049
 Hg        18.8782564579        6.6244035457       15.7139971416
 Hg         9.3004424121       21.8256263905       17.4924273791
 Hg        15.9829999254        8.1947861121       20.7175664135
 Hg        13.6583643174       11.3784999749       21.3622953296
 Hg        11.1143884183       14.9713835083       21.8103896086
 Hg         9.2808267054       18.5121003597       21.4148336613
 Hg        22.1276012229       14.9037379792        9.6924649998
 Hg        19.2715837778       19.2232341918        9.6068343434
 Hg        17.2037047656       22.4462187863       10.0773978625
 Hg        22.3362567862       12.0937285491       12.7043148852
 Hg        15.0072696145       23.5985135100       13.3433336970
 Hg        22.1034644668        9.6026998681       15.9721833345
 Hg        12.8940477966       24.0545143398       16.7547665719
 Hg        19.2238246161       10.2468129180       20.2371557833
 Hg        11.9234752141       22.0639755072       21.0642205869
 Hg        17.1356871027       11.2666119548       23.3201166289
 Hg        14.9483084304       14.6855117008       23.8918158013
 Hg        12.8536118850       18.1297362755       23.7662789110
 Hg        23.4119103087       18.3280703262       12.5983337321
 Hg        21.9644967557       22.3295410372       13.6988009498
 Hg        23.6780673838       15.7009971649       15.7663729183
 Hg        21.6933370891       19.4419289022       16.1828728074
 Hg        18.8608388679       22.7905834198       16.3981556174
 Hg        23.3829574184       13.0251630083       18.8819032545
 Hg        21.6833497327       16.7589494548       19.3705187828
 Hg        19.4918060483       20.5326677231       19.8180547160
 Hg        16.7126254287       23.5051546357       19.6105349710
 Hg        21.9325112782       14.7920838591       22.6314953973
 Hg        18.8235443831       17.5387850622       22.6065962135
 Hg        16.6908370552       20.8312164028       22.7695100465
 Te        14.3345127132       11.9600106841       12.5510702454
 Te        11.6662673250       16.2611247945       12.7987718998
 Te        11.6459257803       12.9371724882       16.7386059562
 Te        18.0781971813       14.5283774098       11.6605009846
 Te        15.5579385065       18.6696370624       11.9027113863
 Te        18.0579846897       11.5065507831       15.2588858043
 Te        15.5394684544       15.5563118241       15.5957927888
 Te        12.9239053684       19.6215155443       15.6384344190
 Te        15.5174246675       12.4403785451       19.2915522396
 Te        12.9004401644       16.2976875911       19.5750544361
 Te        19.4489088256       18.1845741804       14.7611868700
 Te        19.4347420988       15.1563511096       18.3564009008
 Te        17.0064441649       19.0908888474       18.5871022952
 Te        13.0867336671        8.3867355063        9.5379290125
 Te        10.3047352075       12.5800942334       10.2607306632
 Te         7.7069975409       16.8416705755        9.9841622752
 Te        10.2946848895        9.8226129460       13.5371425476
 Te         8.0044141560       13.6192196818       13.9261391257
 Te         7.6649435770       10.2768582334       17.7655849098
 Te        16.9698156525       10.9169942802        8.5405295422
 Te        14.1574066295       15.2039857157        9.2444574914
 Te        11.4970490841       19.4372431724        9.1065706255
 Te        16.9542690322        7.8283407193       12.2138446914
 Te         8.8413509786       20.3346752395       12.9193554076
 Te        14.1295981199        9.2483309650       16.3083895135
 Te         9.3061249013       16.9369481940       16.7212472499
 Te        11.4333549971        9.8303998331       20.4856051610
 Te         8.7949206687       13.7616785659       20.7087867083
 Te        21.0859231133       13.0998901046        7.8719729446
 Te        18.0624141886       17.4788446750        7.9114988836
 Te        15.2449639059       21.8700299793        8.2560042969
 Te        20.7700479038       10.3630353402       11.2375133005
 Te        12.7643350798       22.8041882134       11.9499623325
 Te        21.0555630823        7.5122670085       14.4939196261
 Te        10.3032098003       23.7415194536       15.8138763560
 Te        18.0084181091        8.2937521957       18.7923525416
 Te        10.5103747125       20.2824499873       19.5559237986
 Te        15.1709108402        9.3817690998       23.0463515426
 Te        12.6961848618       13.1963297055       23.3342616240
 Te        10.2565277691       17.1719070473       23.5931841707
 Te        21.6200345095       17.3988001764       10.7294422080
 Te        19.5255921636       21.3911375720       11.2231134478
 Te        21.7050121194       14.1887202080       14.4664712740
 Te        16.6846298483       21.9278817400       14.9335532789
 Te        21.5824852258       11.0418961123       18.2570534361
 Te        14.1383032719       22.7711619074       18.8739665540
 Te        19.4735134661       12.2030582117       22.1057114839
 Te        16.6397538897       15.9680361505       21.9876697025
 Te        14.1124018428       20.0064915712       22.1574691833
 Te        23.8699699809       20.5523339454       14.1774468095
 Te        23.5629850914       17.8096371529       17.5384929577
 Te        21.0335010114       21.7552852207       17.7225976431
 Te        23.8470698466       14.9546551185       20.8081287162
 Te        21.0130917805       18.6642161210       21.3881402484
 Te        18.4338332639       22.6197474161       21.5830374979
 Cl        12.2651326644       23.8685722066       22.5811265551
 Cl        16.7218324454       24.5859193316       11.5229217208
 Cl        10.6464143864       15.6744112569        6.8655196119
 Cl        16.6450249106       13.0496153477       25.1853541479
 Cl         7.0010622908        9.8630230218       10.7710228219
 Cl        25.0949215538       13.7417768513       17.0773273048
 Cl         7.1037162821       17.7848805156       20.2952440726
 Cl        17.9901838928       24.9063709551       17.8246334347
 Cl        14.2106541610        6.5559973261       19.6850752078
 Cl        17.9536789768       19.3008237761       24.4547156233
 Cl        14.3247398198       25.4880874078       15.1539516606
 Cl        13.0743828761       11.8086613695        6.7556514456
 Cl        10.5925602149        6.9908318249       17.1523195433
 Cl         5.8657520114       14.5102765900       17.5321117304
 Cl        20.3177457524       15.1921376337       24.3278278116
 Cl        23.8825839864       10.4938783715       14.3175527213
 Cl        16.7737853170        5.6822578272       16.2858303567
 Cl        23.8913801714       13.4102757833       10.8586565079
 Cl        20.3630190368       24.0820560854       13.8027777891
 Cl         5.8831768452       17.3413904074       14.1837057233
 Cl        13.0463679480        6.2203982129       13.3767831240
 Cl        14.2845969282       18.0880248234        6.0229485139
 Cl        16.8223212542       14.5830220775        5.7476929826
 Cl        25.1099863469       16.6659911982       13.6189043340
 Cl        14.2712481877       16.7891515281       25.4533914497
 Cl         7.1203677428       20.6114213100       16.9486929395
