      51
 i =       30, E =      -519.2562561925
 Cl         9.1351289483        9.0684013473        9.0353169671
 Pb        15.0913584575       15.1889942686       12.0473785816
 Pb         8.9861377166       11.8110258417       15.2573986387
 Pb        15.2914788689        9.1091148534       11.8518396063
 Pb         8.7079118364       14.8906991662       12.1480135806
 Cl         8.9087987962       14.8886434163        9.2270918997
  S        15.0928804571       11.9318345823       11.9120907328
 Cl        15.0010691528       11.9797090905       17.8604902946
 Pb        12.0305361669       17.9951972741       12.2198507583
 Pb        12.1882643133        8.7121739001       14.9804752453
  S        11.7587932653       12.1089670997        8.9161818906
 Cl        14.9591025923        9.2589090762        8.9482709873
 Pb        15.0679827361       12.0158236784       15.1311217616
 Cl         9.0402107294       14.7408545750       15.0516498838
 Cl        11.5797274373       18.0044375708        9.4219063304
 Cl        17.8370612364       14.9644712350       12.1279967113
 Cl         8.9984854745       12.0203676594        6.1394132290
 Cl        15.0908944350        9.1115005047       14.7728635906
 Pb        15.0134191740       12.1888279518        8.7425363971
 Cl         6.1623973397        9.0350607986       11.8729618645
 Cl        12.4207715225        5.9955675257       14.5777198768
 Pb         6.0127369114       11.8240336540       12.3535007179
 Cl        14.6471304817       12.1182685388        6.0119715325
 Cl        12.2208794999        8.9170813237       17.8046622231
 Cl        17.8333479898       12.2948647397        8.9786441911
 Cl         9.3524624441       11.8818156592       17.9879422083
 Cl         6.1661766183       11.7055071373       15.0213824489
  S         8.9065991535       12.0679791551       12.0878071034
  S        11.9201237280       15.0816760380       12.2713011674
 Pb        11.8286433995       12.4142673991        6.0168150408
 Pb         8.9315363912       11.9842765008        8.8687855472
 Cl         5.9860822053       14.6765776954       12.1483966853
 Cl        11.7787442047       15.0828133999        6.1952017323
  S        12.0793215907        8.9182253053       11.7285489387
 Cl        14.7355802384       15.0821963309        9.1373762575
 Cl        12.1994064141        6.1760094322        8.9343106987
 Cl        11.7992166393       17.8239224728       15.0654059634
 Pb        11.9690274875        6.0046979884       11.7799252836
 Cl         9.2641111358        8.9175876042       14.8625777941
 Pb        11.9997433964       11.9999341562       11.9999280492
 Pb        17.9867540125       12.1756567995       11.6465022268
 Cl        14.8641424212       14.9317296327       14.9646692410
 Pb        11.8114875710       15.2877533884        9.0193960978
 Cl        18.0133209473        9.3230731066       11.8507956678
  S        12.2407410648       11.8909648546       15.0837385877
 Pb        12.1709396068       11.5856426299       17.9830886212
 Pb        12.0536313727        8.9025032954        8.8983348743
 Pb         8.9081399051        8.8108284524       11.9527212845
 Pb        11.9456155096       15.0974695344       15.1015262813
 Cl         9.2957822047        6.0066465997       11.8768883304
 Cl        14.7038169805       17.9931713811       12.1236575036
