     149
 i =       48, E =     -3636.4990245720
 Hg        12.6303779155       13.9547765278       11.4531804722
 Hg        12.6248265606       11.2211901364       14.7000590821
 Hg        10.6348967891       14.9415050076       15.0519953888
 Hg        16.5193525028       16.5059391227       10.2564623414
 Hg        16.4093136282       13.4635241892       13.8176368741
 Hg        13.9912033533       17.4677516409       14.0332263278
 Hg        16.4890735218       10.4601713134       17.4365896922
 Hg        13.9661578834       14.3435935201       17.7284130801
 Hg        11.8073262399       18.0775319044       17.6942753941
 Hg        20.1095235301       16.0767096004       12.9430296478
 Hg        17.8085306969       19.9452150435       13.1704785318
 Hg        20.0976872175       13.0226182199       16.5740093748
 Hg        17.7388939056       16.9701346847       16.8014151682
 Hg        15.1332867883       20.6436876984       17.0954573012
 Hg        17.7754770601       13.8926875940       20.3385493479
 Hg        15.1063014405       17.9027357147       20.3454900241
 Hg        11.9506229438       10.8306934445        8.8950986303
 Hg         9.4704568314       14.9168655646        9.0387574535
 Hg        11.9372289691        8.1743494626       12.0433269330
 Hg         7.9953896542       11.5223584201       12.1680873364
 Hg         7.0743144402       15.8501076018       12.4601679238
 Hg         9.4351030099        9.0225779967       16.0316866829
 Hg         7.0509221022       12.5567825591       16.3675481905
 Hg        15.1626524606       12.9295817967        8.0729482277
 Hg        12.6124016127       17.1955791916        7.9425546174
 Hg        15.4693295014        9.6703762693       10.6229492997
 Hg         9.9171574288       18.3779296670       11.1845290552
 Hg        15.1289448437        7.7151254054       14.2633674692
 Hg         8.0495201209       18.8087789928       15.0667177759
 Hg        12.5516979255        8.3072055666       18.4737644090
 Hg         9.8698336361       11.7050121588       19.0928377420
 Hg         8.0358985215       15.6279426326       18.8297595164
 Hg        18.9163592550       14.1789028694        6.8032803855
 Hg        16.0589398791       19.3661209001        7.4917977316
 Hg        18.9931838860       12.2351094897       10.0809634919
 Hg        13.7154273001       20.5356736475       10.5089728604
 Hg        18.9689457561        9.5735075739       13.2724498401
 Hg        11.1333938727       21.6371533623       13.9208447912
 Hg        18.8736595459        6.6452701145       15.7140174554
 Hg         9.3103817334       21.8129995934       17.4920792743
 Hg        15.9911599972        8.2096035411       20.7001938478
 Hg        13.6545174568       11.3860491536       21.3503204066
 Hg        11.0842793639       14.9500274865       21.8325865289
 Hg         9.2942555420       18.5125855628       21.3978681404
 Hg        22.1193518053       14.9048357895        9.7044013580
 Hg        19.2702751569       19.2129794168        9.6192837424
 Hg        17.2058588865       22.4278560408       10.0872223369
 Hg        22.3297132158       12.0976082029       12.7110414349
 Hg        15.0071872666       23.5802887413       13.3486902208
 Hg        22.0931176695        9.6079133286       15.9691346097
 Hg        12.8919855445       24.0310379655       16.7528068670
 Hg        19.2240109914       10.2642402179       20.2184401750
 Hg        11.9196111290       22.0613973672       21.0575825860
 Hg        17.1381062789       11.2776356385       23.2930114681
 Hg        14.9471442443       14.6939396155       23.8649220505
 Hg        12.8552967022       18.1293128004       23.7335665856
 Hg        23.4017809580       18.3255331266       12.6027108189
 Hg        21.9560434884       22.3084021514       13.7013653210
 Hg        23.6748646107       15.6987500453       15.7628126678
 Hg        21.6846925049       19.4292029922       16.1806389296
 Hg        18.8531667946       22.7713995616       16.3899991602
 Hg        23.3740705910       13.0297081576       18.8737577375
 Hg        21.6775254393       16.7581636192       19.3609708557
 Hg        19.5168174606       20.5458226216       19.8241793665
 Hg        16.7031811332       23.4885459760       19.5872065161
 Hg        21.9212018813       14.7908831708       22.6099777903
 Hg        18.8135551872       17.5354623475       22.5800535006
 Hg        16.6788882282       20.8222428949       22.7368119366
 Te        14.3367567649       11.9573489930       12.5483928573
 Te        11.6635886119       16.2647391924       12.8037252196
 Te        11.6384893211       12.9414722512       16.7403448295
 Te        18.0722239633       14.5307686577       11.6689728638
 Te        15.5513638795       18.6649606833       11.9095806189
 Te        18.0507033985       11.5204180935       15.2592599438
 Te        15.5333403816       15.5575639252       15.5953952799
 Te        12.9157970944       19.6204490223       15.6333321260
 Te        15.5101808028       12.4500338145       19.2806633032
 Te        12.8898401150       16.2955044079       19.5690127063
 Te        19.4398086955       18.1796269584       14.7607453954
 Te        19.4273132829       15.1613338017       18.3471055661
 Te        17.0031693444       19.0895365167       18.5813830781
 Te        13.0827308576        8.4009174853        9.5447184864
 Te        10.3226364286       12.5920964386       10.2709194390
 Te         7.7136602313       16.8282894290        9.9916233638
 Te        10.3149172913        9.8387833077       13.5411201594
 Te         8.0241076242       13.6090582813       13.9179070374
 Te         7.6689782535       10.2818529159       17.7459032156
 Te        16.9763754359       10.9323129293        8.5447641520
 Te        14.1599229783       15.2014576029        9.2601006124
 Te        11.5049126101       19.4261144273        9.1108007430
 Te        16.9606960473        7.8358133956       12.2314634071
 Te         8.8327022833       20.3285596126       12.9229261004
 Te        14.1289358755        9.2646867984       16.3054880794
 Te         9.3176799872       16.9350605377       16.7156709126
 Te        11.4427966428        9.8300504385       20.4778641064
 Te         8.7826763970       13.7638661957       20.6980179158
 Te        21.0762387904       13.1126237445        7.8861334748
 Te        18.0601548587       17.4745417154        7.9323737753
 Te        15.2538223111       21.8531137915        8.2707498889
 Te        20.7601786317       10.3766362731       11.2498722206
 Te        12.7713190553       22.7960191675       11.9509243288
 Te        21.0455877014        7.5255731491       14.4974855058
 Te        10.3047756997       23.7297482876       15.8206956542
 Te        18.0097627324        8.3175762738       18.7792511192
 Te        10.5240041389       20.2792399732       19.5485407910
 Te        15.1821627212        9.3955581131       23.0208466843
 Te        12.7038790033       13.1979857735       23.3217247461
 Te        10.2623597726       17.1791672053       23.5747091082
 Te        21.6137801079       17.3914322984       10.7431772028
 Te        19.5189593367       21.3728462254       11.2328221486
 Te        21.7008862482       14.1922288749       14.4663376318
 Te        16.6782432777       21.9130183360       14.9356265087
 Te        21.5765929926       11.0558480592       18.2414103070
 Te        14.1362678729       22.7521167577       18.8628528203
 Te        19.4669597595       12.2156163817       22.0801977225
 Te        16.6344676657       15.9709560812       21.9656163858
 Te        14.1101804913       19.9971458611       22.1272456519
 Te        23.8597123230       20.5417047809       14.1761687724
 Te        23.5483420959       17.8018246803       17.5300534720
 Te        21.0247935672       21.7439147430       17.7057979456
 Te        23.8335694244       14.9512494764       20.7962549565
 Te        21.0046659165       18.6534571419       21.3769208150
 Te        18.4163567955       22.6117819499       21.5617513199
 Cl        12.2588240499       23.8652277638       22.5729570838
 Cl        16.7198998644       24.5691215287       11.5267773705
 Cl        10.6531765871       15.6718022396        6.8737079594
 Cl        16.6417931748       13.0551391673       25.1598396028
 Cl         7.0157266368        9.8630374773       10.7679029496
 Cl        25.0881150635       13.7386094022       17.0666917340
 Cl         7.1148001135       17.7801865004       20.2869355759
 Cl        17.9895108802       24.8924709381       17.8131992799
 Cl        14.2175818916        6.5692398508       19.6749222691
 Cl        17.9484000180       19.3020726259       24.4254704237
 Cl        14.3195875653       25.4703973933       15.1542396351
 Cl        13.0863590407       11.8098438546        6.7666295331
 Cl        10.5955963076        7.0039035009       17.1461628330
 Cl         5.8776887969       14.5068528236       17.5240135366
 Cl        20.3123544190       15.1965227717       24.3090297184
 Cl        23.8780664706       10.5048069779       14.3216248734
 Cl        16.7699931655        5.7007990663       16.2817821676
 Cl        23.8858703078       13.4148524694       10.8702054716
 Cl        20.3585702146       24.0636817919       13.8076424303
 Cl         5.8976728284       17.3333460254       14.1750203998
 Cl        13.0568969003        6.2365391315       13.3739252568
 Cl        14.2888025604       18.0831560428        6.0370329156
 Cl        16.8192257648       14.5848701460        5.7652020129
 Cl        25.1006913752       16.6562808275       13.6145106460
 Cl        14.2682359519       16.7924120064       25.4280643539
 Cl         7.1278688659       20.6067420778       16.9420161107
