381
 i =        2, E =    -10371.1330838195
 Hg        16.4827261719       22.5727755161       16.4869541833
 Hg        19.5965315922       25.6563210327       16.4158556591
 Hg        22.6619116307       28.6494871673       16.2074257560
 Hg        17.1472940665       25.4691297723        7.6430907312
 Hg         7.3849400353       13.3228152284       16.2051139646
 Hg        10.3696697102       16.3849245268       16.4111842028
 Hg        13.4241248273       19.4915065538       16.5002483158
 Hg        19.4950089158       22.5760482400       19.5075091807
 Hg        22.6204902356       25.6016183785       19.3934283054
 Hg        25.4420356345       28.3650118824       18.9263561022
 Hg        13.1162781151       10.0737470145       13.1143355482
 Hg         7.6562179707       10.5057449276       18.8459244326
 Hg        10.3863264000       13.3730421727       19.3998176723
 Hg        13.4153013923       16.4554460755       19.5413147154
 Hg        16.4326964511       19.5575808550       19.5687589157
 Hg        22.5690889297       22.5843645195       22.4964997052
 Hg        25.9625143100       25.9931363926       22.7365505889
 Hg        16.3174163442       13.2756682108       13.2978520761
 Hg        10.1209430621       15.9679571861       10.1478659647
 Hg        10.6746973887       10.6276165656       22.3116949195
 Hg        13.5105678584       13.4191223718       22.5814383021
 Hg        16.5023308199       16.4952962259       22.5763605591
 Hg        19.5390464109       19.5374780819       22.5903896302
 Hg        25.3539867599       22.3091615212       25.3355572942
 Hg        19.6213237581       10.3418843793       19.6019994184
 Hg        13.2886516067       10.0095416817       25.9798120819
 Hg        16.6149105453       13.3610102801       25.5931817316
 Hg        19.5941807829       16.3878916659       25.6411122823
 Hg        22.6124979382       19.3954014372       25.6201777002
 Hg        22.7182569198       13.3103657382       19.6952510197
 Hg        28.6518159441       16.1983803885       22.6389676534
 Hg        22.5811313336       16.5056929585       16.4817508160
 Hg        22.2858308132        7.5376255417       13.9147893159
 Hg        22.6841887726       22.7102478428       16.2905430728
 Hg        19.8080378956       13.3235562753       28.6314493627
 Hg        22.6586589926       16.1923488042       28.6159737532
 Hg        25.4776806717       18.8354075560       28.3501032731
 Hg        19.5262499386       16.4672291216       13.4133585907
 Hg        19.4146141753       16.5744927180        7.2621778013
 Hg        10.5834018633        7.6363661277       18.9150203674
 Hg        13.3388745279       16.1758899140        7.3873581908
 Hg        22.3111219427       10.6451833706       10.6561166297
 Hg        16.5632994064       19.4141565674        7.2626708999
 Hg        28.3340603364       25.4812673712       18.9245967226
 Hg        22.9097471586       13.1125570995       25.9037197691
 Hg        28.6362268092       19.8446727391       13.3372423899
 Hg        13.9413220855        7.5225061763       22.2767642807
 Hg        13.3025483196       13.2714820193       16.3252535891
 Hg        25.8661764583       20.0264241504       10.1339642478
 Hg        25.6591539875       16.4026796782       19.5698679286
 Hg        16.4189526685       10.3527608589       16.4096505298
 Hg        17.1147679700        7.6493888930       25.4576423289
 Hg        19.9862527619       25.8785211062       10.1397095512
 Hg        19.5548911921       19.5633425718       16.4237873385
 Hg        16.6018228582        7.2466756764       19.4447593021
 Hg        20.0298884119       10.1033439035       25.8985970421
 Hg        10.6235698781       22.2785859820       10.6601045841
 Hg        13.6813323997       25.3494223510       10.6629614280
 Hg        17.0831660778       28.3460459974       10.5658685208
 Hg         7.6446936409       18.8684837595       10.5681280206
 Hg        13.4146190466       22.5557953565       13.5016255888
 Hg        16.5913076053       25.6643248079       13.4073050533
 Hg        19.7982082948       28.6471635898       13.3446231474
 Hg        16.0045599899       10.1160400337       10.1451277527
 Hg         7.3587761182       16.1635187285       13.3467430927
 Hg        10.3294852055       19.3750448741       13.4080643065
 Hg        16.3645105263       25.6494299726       19.5784055241
 Hg        19.4153079529       28.7545587452       19.4171253622
 Hg         7.2591354933       16.5659508007       19.4268892956
 Hg        10.3551976336       19.6003825708       19.5885483687
 Hg        13.2890225543       22.6885052557       19.7094032258
 Hg        19.3773388210       25.6724324572       22.5839571215
 Hg        22.2461664745       28.4819689056       22.0764101038
 Hg         7.5821499485       13.8384981046       22.1551437106
 Hg        10.3825786374       16.6041340688       22.6123777484
 Hg        13.2915402634       19.6754565727       22.7249613237
 Hg        16.3156543982       22.7162321252       22.7090458577
 Hg        22.2845862156       25.3730811819       25.3326842883
 Hg        22.5730475831       19.5167391283       19.5036121939
 Hg        22.1474771592       13.8573520665        7.5724705918
 Hg        22.5772352539       13.4361037924       13.4954171366
 Hg        19.5177526941       13.4279866801       16.4931866090
 Hg        10.6668482800       13.6909637745       25.3636443128
 Hg        13.4106190954       16.5945525174       25.6710768010
 Hg        16.4069651546       19.5968139148       25.6336412423
 Hg        19.3889426125       22.6172656777       25.6207367407
 Hg        25.9870206932       10.0370633814       13.2506980188
 Hg        13.9248386661       13.7209761473       28.4724027471
 Hg        16.5822252175       16.5531102292       28.7451990212
 Hg        19.4241241602       19.4191052956       28.7406516508
 Hg        22.1459224382       22.1545694227       28.4207227281
 Hg        22.7008879353        7.3685733020       19.7981820181
 Hg        22.6416885467       10.4139267580       16.6039854107
 Hg        25.8828821976       25.9182990763       16.0020539832
 Hg        13.4204028999       10.3225403053       19.4046922880
 Hg        10.0950772081       13.0802376283       13.1208350746
 Hg        25.3681651341       13.7212960603       10.6577987285
 Hg        28.3459627150       17.1343892890       10.5568659367
 Hg        22.6071830574       16.6143764984       10.3772857776
 Hg        18.8384570215       10.5239672279        7.6431007868
 Hg        25.4725658056        7.6622663680       17.0686467400
 Hg        25.8878531594       16.0059467555       25.8485155033
 Hg        25.9180697631       10.1101964967       19.9875011307
 Hg        22.6404010185       19.8105628091        7.3786197787
 Hg        25.6487799293       19.6381944698       16.4088104584
 Hg        25.6027562809       13.3771670761       16.5885204634
 Hg        19.5851217669       19.5958680894       10.3763619742
 Hg        28.6312114187       22.7145885189       16.1972716510
 Hg        19.7206335307       13.3025927854       22.7042419323
 Hg        16.5017580665       13.4216982243       19.5117303663
 Hg        28.7534248537       16.5850391774       16.5648045650
 Hg        10.0020877181       25.9554581875       13.2569365679
 Hg        13.7046439503       28.4556884788       13.9138680038
 Hg         7.5155466389       22.2436948785       13.9151542242
 Hg        13.3483109699       25.5810985996       16.6026112957
 Hg        16.5357640174       28.7473077591       16.5740560714
 Hg        19.5693432644       16.4426946260       19.5652219780
 Hg        22.7105960527       19.6899704057       13.2818327369
 Hg         7.2499789470       19.4219899234       16.5777881170
 Hg        10.3976242120       22.6182331073       16.6024256464
 Hg        16.1579043288       28.6413546618       22.6464080855
 Hg         7.3750063487       19.7997877466       22.6524836457
 Hg        10.0800167231       22.8850327474       22.8949799662
 Hg        13.0833227877       25.9027820550       22.8839464410
 Hg        18.8734712268       28.3555763027       25.4240609754
 Hg        28.4787464485       13.7537190195       13.9059463797
 Hg        16.6298329729       10.4054523583       22.6315260596
 Hg        19.3909491693       13.3852426498       10.3811359235
 Hg        16.4604082027       19.5242876933       13.4124425273
 Hg        19.7853722254       22.6517331729        7.3811905349
 Hg        25.4660736915       17.1806244472        7.6383947807
 Hg         7.6463634259       17.1625221669       25.4772141765
 Hg        10.1431935298       19.9955831265       25.8782388516
 Hg        13.1075073962       22.8929034213       25.9085332803
 Hg        15.9856290105       25.8763875670       25.8516341355
 Hg        13.1061399748       13.0880687024       10.0992809369
 Hg        16.4347363700       16.4330163148       16.4328422558
 Hg        10.5713892780       17.0920306679       28.3512355328
 Hg        13.3433719683       19.8067742804       28.6417154735
 Hg        16.1935328567       22.6567726758       28.6207359277
 Hg        16.5898386099       22.6075940655       10.3785397173
 Hg        22.8774748792       22.9030247161       10.0874666895
 Hg        19.6699679019       22.7215437588       13.2848775228
 Hg        13.3536272626        7.3431277496       16.1968687185
 Hg        25.5855763955       22.6486744142       19.3892210068
 Hg        22.9160448320       10.0976864734       22.8885010020
 Hg        25.9283295101       13.1118950360       22.8741240584
 Hg        16.2044516630        7.3478880297       13.3421889934
 Hg        22.7331041584       16.3323695231       22.7060367262
 Hg        22.8841916419       25.9228769365       13.1102302015
 Hg        25.6691340416       16.6277461889       13.3999145244
 Hg        16.1912624941       13.3354787524        7.3866370332
 Hg        19.8269535901        7.3660898212       22.6724995614
 Hg        19.4615399904        7.2516758525       16.5823943738
 Hg        10.5112306125       28.3281054388       17.0694834417
 Hg        25.6712092888       19.4071104472       22.5820636261
 Hg        28.4615377243       22.2877660034       22.0784968686
 Hg        19.4048598824       10.3334167919       13.4052214171
 Hg        28.6503198519       13.3356068477       19.7715187542
 Hg        13.2850804238       28.6306193731       19.7879171753
 Hg        10.5155360825       18.8091117439        7.6467461698
 Hg         7.3531539942       22.6588130926       19.7923663593
 Hg        10.0783311206       25.8809125599       19.9960532034
 Hg        13.2800536157       16.2977568595       13.2981319268
 Hg        13.8345449384       22.1361006067        7.5760413345
 Hg        25.8962465179       22.9186409411       13.1079300584
 Hg        28.3520290578       18.9097886822       25.4217041099
 Hg        13.3765015162       19.3733103188       10.3833022148
 Hg        28.7495509032       19.4623310713       19.4107004228
 Hg        16.3959334560       16.3921021810       10.3793186499
 Hg        18.9137476684        7.6517304072       10.5645047947
 Hg        10.1544226954       10.1068855870       16.0122502364
 Hg         7.6290114953       25.4349952292       17.0711652313
 Hg        17.1023222052       10.5386648651       28.3481261374
 Hg        18.8251692454       25.4812847557       28.3497663298
 Hg        28.3629373037       10.5517326087       17.0575126786
 Se        17.8552901166       24.3291181130       24.3025580377
 Se        21.1255502254        8.7329036018       18.0305131269
 Se        21.1963544966       24.3246190292       14.7696392669
 Se        21.4054578172        8.4500313094       24.3952911114
 Se         8.7318791289       18.0297525561       21.0886717629
 Se        27.2888610689       18.0833072643       14.9175177387
 Se        27.3527622187       14.9724314661       11.8215498917
 Se        18.0647471704       14.8571624148       21.1471354037
 Se        14.8827897895       21.0909476401       11.8061783709
 Se        14.9041112944       17.9453784496        8.7360025879
 Se        24.3806970785       27.5715643038       14.6199831110
 Se        11.8373854968       14.9351111995       27.3525461720
 Se         8.4274974898       24.3772507602       21.3808172575
 Se        11.8133571352       14.8827285228       21.1137863548
 Se        24.3824309207       21.3775298079        8.4400195022
 Se        21.0120893408       24.2437807169       27.3201609911
 Se        24.1948197667       21.0651630962       21.0567429600
 Se        14.7732675471       24.3092310927       21.2248226856
 Se        17.9187850451       27.2912723018       21.0659681511
 Se        14.6349859042       11.5866168245        8.4540629266
 Se         8.7240310541       21.0895350257       18.0296573485
 Se         8.4563251125       27.4928338363       18.3306203490
 Se        21.2083152011       21.2265284720       11.6856135733
 Se        21.3420580657       24.4027539107        8.4428479441
 Se        18.0384173517       27.2919181193       14.9243213354
 Se        17.9467663698       14.8498900694       14.8503536597
 Se        14.7744087112       14.7633800296       11.6961744175
 Se        17.9963586034       17.9993864753       17.9962714904
 Se        11.6906960724       14.7551963005       14.7910401929
 Se        21.3559336096       27.5634418742       11.6019215627
 Se        21.0670886275        8.6587087434       11.8269734464
 Se        14.7829877237       21.2221179503       24.3132251430
 Se        21.0599882821       11.8073267202       14.9325350443
 Se         8.5081240611       18.3437384793       27.5483864517
 Se         8.7332930093       14.8929778578       17.9713742221
 Se        14.8504796633       21.1378313100       18.0572909014
 Se        17.9846542272       24.1867430882       17.9976170549
 Se        24.3296385943       14.8019577468       21.2148435604
 Se        24.4164837941       14.6490247775       27.5450377691
 Se        14.9363159416        8.6977934555       17.9512283937
 Se        17.9907327530       17.9941329358       11.8301082710
 Se        24.2381700918       27.2073205942       21.0176239463
 Se        14.6346637868        8.4304929547       11.6085965749
 Se        21.0894986314       17.9618584216       27.2657817007
 Se        11.6811354167       21.1982918364       21.2361937077
 Se        27.2088842059       11.7580013258       14.9632434534
 Se        27.4987160399       27.5365943024       17.6645162937
 Se        24.2345796777       21.0242191311       27.3201019730
 Se        24.2040434748       14.9615028919       14.9256189834
 Se        17.9431110836       21.1416210195       21.1528442544
 Se         8.7884448760       24.2326353942       14.9787867899
 Se        24.2071951877       24.2290570981       24.0172059539
 Se        14.8489052716       18.0461703754       21.1516344554
 Se        11.6668494224       17.8363903569       11.7001630233
 Se        18.0161981852       11.8130662941       18.0055042217
 Se        17.6545093433        8.4549171800        8.5042984130
 Se        11.6837666831       24.2858379046       18.1957121128
 Se        24.3380231170       17.8787185807       24.3010455582
 Se        14.8470772645       17.9370863176       14.8473493402
 Se        17.9637007302       21.0917730438       27.2713260873
 Se        14.8614757648       27.2703333922       18.0211851101
 Se        21.1070572534       21.1143154210       24.1926323732
 Se        21.0330431286       27.3554525576       24.1613964729
 Se        17.8620927786       11.6701658262       11.6986061809
 Se        18.0406363239       21.1452367541       14.8405562644
 Se        11.8489028714        8.6422114425       21.0674769225
 Se        11.7522993465       20.9943488419        8.6798409624
 Se        18.2131227650       11.6985694450       24.3062628759
 Se        24.1893147207       18.0171229723       17.9898402552
 Se        11.5724158012       27.5421562800       21.3742459822
 Se        27.2728843989       21.1375021922       17.9638730728
 Se        18.1193657152       24.3257838144       11.6894473664
 Se         8.5205023447        8.4383913900       17.6608338763
 Se        14.9624389213       24.2254289871        8.6761710624
 Se         8.4523947958       17.6138842156        8.5078146156
 Se         8.4566507300       11.5739447458       14.6501730824
 Se        27.5762752856       11.6154992764       21.3590895782
 Se        24.3031586534       21.2290310261       14.7664212175
 Se         8.6856834402       14.9763415518       24.2390482528
 Se        27.5446095838       21.4013883900       11.5980868622
 Se        21.0752671131       18.0421988592        8.7320677028
 Se        17.9545545269       14.9080158757        8.7353714916
 Se        14.9992231822       11.7358500312       27.2009479519
 Se         8.4445984147       21.3486802622       24.4073165794
 Se        14.9291916537       18.0530124874       27.2911844549
 Se        14.9491803761       14.9464585941       24.2016735203
 Se         8.6897728083       11.7497423187       21.0282528781
 Se        11.7171846842       27.1758418368       14.9758213614
 Se        18.0528691237        8.7291590490       21.1066152230
 Se        15.0114595312        8.8000991041       24.2603673495
 Se         8.6423742897       21.0261371744       11.8319647875
 Se        11.5574658985       24.4222025807       24.4358747361
 Se        24.4531411005       11.5835740525       24.4244341954
 Se        11.8217200168       17.9768801341       18.0179023848
 Se        11.5701186320       11.5462121319       11.5744633601
 Se        24.3219356625       18.1515365041       11.6845409299
 Se        14.6333678420       24.4014208087       27.5501837654
 Se        27.2961049043       17.9593571890       21.0601937372
 Se        11.9967199338       11.7754501590       24.2263450568
 Se        24.4125991198       24.4450867659       11.5580749546
 Se        27.5521454883       17.6607562882       27.4881068836
 Se        21.1411857642       18.0572907505       14.8384724545
 Se        21.2373400253       11.6931021801       21.2151096570
 Se        17.9604040046        8.7023573272       14.9222877070
 Se        11.6163687322        8.4262499118       14.6326425351
 Se        11.6088301103       21.3722571018       27.5599064336
 Se        24.4235605696        8.4559962878       21.3727723120
 Se        21.2448426061       14.7991807500       24.3094449934
 Se        14.9310490959       24.1904862161       14.9325684996
 Se        21.1501514547       17.9563341315       21.1489391103
 Se        24.2697865333        8.8195790019       14.9751365153
 Se        18.0385229169       14.8908848660       27.2689316754
 Se        14.7873585795       11.6724932450       14.7856771840
 Se         8.4422561419       14.5924378342       11.6166233564
 Se        21.0401570099       24.2030020433       21.0586586883
 Se        24.2233957267       11.8004468167       11.9741231854
 Se        21.1313825295       21.1468550295       17.9365375587
 Se        18.3303601994       27.5402032264        8.4996185067
 Se        11.7087805784       11.6607937159       17.8696960797
 Se        24.2868377648       24.3128649199       17.7986861935
 Se        21.1532914663       14.8684230942       18.0500000849
 Se         8.7087152237       17.9202423656       14.9289827318
 Se        11.7944959524       21.0308959451       14.9419732957
 Se        21.1004387285       14.9000968752       11.8049973055
 Se        27.3445110779       21.0700774664       24.1638782848
 Se        27.2819645340       14.9049754793       18.0078903701
 Se        24.3177860979       11.7091821624       18.1827880297
 Se        18.3660774877        8.4845743355       27.5185200870
 Se        21.0941032226       27.2815606778       17.9725225310
 Se        18.0177375456       18.0105243466       24.1802092688
 Se        27.5355029634        8.4944334874       18.3183116231
 Se        27.5716706901       14.6387549003       24.3801910247
 Se        27.5391316297       24.4264855136       14.6130132702
 Se        11.6993601594       18.1284300495       24.3345689056
 Se        27.1816849665       24.2749606625       21.0159390731
 Se        18.0226352189       21.0804108262        8.7339086375
 Se        17.6309673250       27.5461040334       27.4908392441
 Se        14.6028545858       27.5519092543       24.3877846157
 Se        11.7677692105       24.1947750387       11.9816877600
 Se        14.9256565881       27.3379983225       11.8282744631
 Se        14.9498777556       11.7970449480       21.0582250838
 Se        21.4019815134       11.6118368466       27.5555869129
 Se        24.2316471331       14.9950696191        8.6734091482
 Se        21.0180871517       11.7700941602        8.6773947410
 Se        27.5310914906       18.3774811822        8.4913544610
 Se        11.5968867623       14.6110752487        8.4538386184
 Se        14.8557609798       14.8489060657       17.9501655688
 Cl        23.8928970074       17.9188396790        5.8935972803
 Cl        30.1694003359       15.0788054635       20.9011125624
 Cl        20.9489025906        5.8599492340       20.9196793694
 Cl        23.9111811911       18.0971101318       30.0974000923
 Cl        18.0766740355        5.8805009057       12.0689473171
 Cl        30.2876717910       18.0292287034       17.9832141221
 Cl         5.8741099211       23.9058561555       17.9301067821
 Cl        12.0220460480       30.0986281943       17.9252210192
 Cl        15.0708918585        5.8129304806       15.0578388184
 Cl        30.1120232688       17.9732864911       12.0637303556
 Cl        11.5813453765        8.8327946050       27.1476566002
 Cl         5.8984649212       17.8954889538       23.9101472624
 Cl        20.9263668665       30.2520950733       20.9988499531
 Cl        15.0135792212       30.2341696412       14.9904297538
 Cl        17.9512727197       12.0656045009       30.1101778111
 Cl        15.0149014143        5.7518135322       20.9543657398
 Cl        18.0844442387       23.9197462855       30.1024493637
 Cl        18.0024985673       17.9970417152       30.2848154574
 Cl         5.8385681893       15.0310289499       15.0800501649
 Cl        12.0812131405       18.0635977374        5.8997168606
 Cl        23.9188750754       30.1245899601       18.0670627340
 Cl        17.9847314845       17.9910600250        5.7153462142
 Cl        17.8860904904       23.8984387906        5.8973998595
 Cl        30.1549037421       20.9790407347       15.0621964442
 Cl        17.9710789939       30.2869973390       17.9948865276
 Cl        27.1381268779        8.8521661038       11.5376267120
 Cl         5.8449210627       20.9021259683       20.9210952782
 Cl        30.1234535719       12.0791217680       17.9061810143
 Cl        18.0221678181        5.7129923360       18.0016770762
 Cl         5.7470170117       20.9208891673       14.9930121533
 Cl        17.9644521356        5.8891614939       23.9338292945
 Cl        20.9712922032       20.9830881263       30.2286629938
 Cl        15.0748440930       20.9410260673       30.1642408882
 Cl        23.9543906661        5.8995498092       17.9259584888
 Cl        18.0833744025       12.0879871168        5.8981464486
 Cl         5.7124774187       17.9790698303       18.0003826565
 Cl        18.0323151948       30.1170359322       23.9118591388
 Cl         5.8799712056       18.0282148511       12.0796759088
 Cl         5.9045538410       12.0645294561       18.0988141300
 Cl        15.0217050720       30.1553686395       20.9161149050
 Cl        15.0683094272       15.0617181710        5.8540515616
 Cl        17.9132353641       30.1125041185       12.0769728394
 Cl        27.1392589772       27.1806674040       24.4298899823
 Cl        20.9194989830       30.1678550401       15.0749749343
 Cl        30.2498926121       15.0767656219       14.9767522874
 Cl        30.1170382222       18.0836779403       23.9049090040
 Cl        30.2383370209       20.9832323924       20.9923740234
 Cl        30.1030573333       23.9736766549       18.0570453388
 Cl        15.0020561109       15.0431218648       30.2433473210
 Cl        15.0061640163       20.9578833783        5.7693256221
 Cl        12.0826096767       17.9326978004       30.1168210865
 Cl        20.9302724358       15.0804536275       30.1444834632
 Cl         5.7732593775       15.0045967422       20.9775165631
 Cl        12.0905356588        5.8704759610       18.0705467777
 Cl        20.9641517449       15.0259270196        5.7670988282
 Cl        20.9681850712        5.7626145551       14.9865127610
 Cl        20.9016216425       20.9205281558        5.8497813096
 Cl         8.8110446794       27.1090448704       11.5500917617
