     282
 i =       47, E =    -10246.4147706058
 Ga        24.8040903828       22.0069609691       12.5505241402
 Ga        22.1562099145       12.9647125281       12.8052198632
 Ga        16.0025073152       24.9664202928       18.8874374266
 Ga        16.2288006539        7.0422749611       12.7948633046
 Ga        18.8796655376       15.9977638355        6.8003118826
 Ga        22.1644356481       13.0358687774       18.8812787929
 Ga        15.8419959394       12.9671728444        6.8072873734
 Ga        19.0460575362       15.9316276452       12.8105623410
 Ga        19.1976342879       15.8307699388       24.9580660250
 Ga        16.2432006254        6.8855665851       18.8007838734
 Ga        18.9548604721       18.9521817237        9.8423304949
 Ga        22.0026752358       15.9147798771        9.7631107854
 Ga        22.1534404618       16.0000677214       15.9100504682
 Ga        22.1643521142       15.9888735461       21.9864300667
 Ga        16.1400499441       12.9614670226       12.8735849429
 Ga        19.0344276523       18.9632258924       15.9139362031
 Ga        19.1970089253       18.9640256323       21.9908695181
 Ga         6.9641528230       10.1544267972       12.7176813193
 Ga        21.8452399114       19.0446543672        6.9539949509
 Ga         6.7919846685       15.1968632483        9.9186102272
 Ga         7.0472742445       12.9612776719       15.9152867415
 Ga        16.0785953948       12.8837377691       18.8873507415
 Ga        21.9966366238       18.9687208705       12.8904511254
 Ga         7.2916247183       15.8476736278       13.1132738512
 Ga         7.0386072687       16.0082050532       18.8858489971
 Ga        22.1588313834       19.0301334201       18.9554710947
 Ga         6.9658143917       19.0420478855       16.0066542664
 Ga         7.2769158919       19.1298040163       21.8413641005
 Ga        19.1232576512       16.0005638346       18.9537659882
 Ga         7.1944463188       22.1614092454       19.0423935411
 Ga        22.3210955086        7.1968683213       18.9646637720
 Ga        21.9267497621       21.9198229676        9.9229151434
 Ga        16.2498698865       24.8798604910       13.0361623901
 Ga        19.0454212583       21.8514929468        6.9573375197
 Ga        19.0436041553       21.9222520319       12.8884853086
 Ga        15.9234004774       22.0117847047        9.8270536661
 Ga        19.1131018764       22.0709417484       18.9511530330
 Ga        21.7625042258       21.6804943160       15.5306026210
 Ga        16.0051135453       22.0693161700       15.8415714564
 Ga        16.2346254033       12.8858540115       24.9537872966
 Ga        15.9933505421       21.8361299363       21.8423662879
 Ga        22.1561591650       24.7257170400       12.5558596882
 Ga        19.2024761733        7.0423678865       15.8527913023
 Ga        19.1294864405        7.0363333466       21.7724845484
 Ga        22.3186293637       12.7882842351       24.7209265725
 Ga        10.7231902241        6.3161556573       13.6686087518
 Ga        18.3241069270       25.6025392668       10.4857367170
 Ga        10.2431970099        9.9190591038        9.9134745230
 Ga        10.0665943864        9.8473402585       15.9937919061
 Ga        25.0448503648        9.9186687290       19.0476427128
 Ga        10.0774314588       12.8007181423        7.1195026857
 Ga        10.0754733141       12.7282581151       13.0407543886
 Ga        10.0044488920       12.8854655238       18.9527248623
 Ga        22.2294081762       10.0053582632       15.8472210163
 Ga        10.0794190615       15.9139559058       10.0824445937
 Ga        10.0008731942       15.9932075736       15.9185442911
 Ga         9.9958874699       15.8430207515       21.9227747600
 Ga        16.0771439881       15.9190802760       21.9236566882
 Ga         9.9287586119       19.1109955290       12.8784524295
 Ga         9.9971063539       18.9671686231       18.8049905447
 Ga        10.7155092386       17.9169720942       25.8506333876
 Ga         9.9948770603       22.0811042483       15.8560761405
 Ga         9.9175138775       22.1487416564       21.5045069735
 Ga         9.9135560496       24.8858688792       19.0403710893
 Ga        19.1316311258       12.9650494841       21.9158709417
 Ga        15.9965575791       18.9563230266        6.8052126061
 Ga        19.1159662744       24.8871570325       15.9859979382
 Ga        25.1926338298       13.0273472238       16.0072159560
 Ga        19.1319501729       10.0008515307       12.8030294426
 Ga        25.0422853959       12.7959568653       22.0017542084
 Ga        15.9328869806       19.0307328885       12.8148389181
 Ga        15.9989807609       15.9977235020        9.8271429719
 Ga        19.1991139800        9.9928137215       18.8638498185
 Ga        12.8795900773        7.0411735836        9.9205561444
 Ga        13.2780776888        7.1177981071       15.6038971869
 Ga        24.9498764082       16.1715925750       13.0346216956
 Ga        12.7911564501        9.7505966186        7.1976814579
 Ga        13.2021032252        9.9930559893       12.7919948642
 Ga        13.0444127669        9.8433378259       18.8849053826
 Ga        25.1181359395       15.9231092922       18.9631828081
 Ga        13.1053451436       13.0307459232        9.9041733682
 Ga        13.0325553164       12.9562783025       15.9155158031
 Ga        13.0451086757       12.8116063802       21.9227734383
 Ga        19.1350869858        9.9123841747       24.7252654780
 Ga        12.9603183920       15.9922544793        6.8812472785
 Ga        12.9636850153       16.0057277775       12.8147238387
 Ga        13.0369644314       15.9301496899       18.9601328065
 Ga        13.2071550998       16.0051748582       24.7139390877
 Ga        12.9561976306       19.1024227889        9.7624437801
 Ga        12.9692871725       19.0381192453       15.8386734925
 Ga        12.8072505327       18.9666397993       21.9132934266
 Ga        12.9593864641       22.1515333980       12.8087644278
 Ga        13.0385844839       22.0028035612       18.8055110478
 Ga        15.3586841212       21.9954126308       25.1956067358
 Ga        16.0728742695        9.9931382764        9.7687473017
 Ga        13.0318866119       25.1127772753       16.0063899029
 Ga        12.8803828844       24.7961720915       21.8455875544
 Ga        16.0087389396       15.9996057517       15.9089857512
 Ga        22.4886715866       10.1581854383       21.6838116921
 Ga        16.0745049777        9.8451774655       21.9114509469
 Ga        16.0714973242       18.8032130355       24.5604682984
 Ga        25.6110504311       18.2476796667       10.4790924239
 Ga        25.0346882701       19.0353451958       15.9913177914
 Ga        19.0371554338       12.9614576966        9.7591635941
 Ga        16.0745999968       19.0388941921       18.9573281687
 Ga        16.0898333815        9.9177741105       15.8482700728
 Ga        19.1280221763       12.9605707887       15.8418100755
 Sb        17.5253659425       23.3761952340       11.3994012163
 Sb        17.6109307639       11.4418296716       17.3578172718
 Sb        20.6831835521       14.3865697401       23.4465688396
 Sb        17.6165268736       11.4042153981       23.3519440646
 Sb        14.4636447229       23.6463501313       14.4040184964
 Sb        17.5298899543       23.4796313437       17.4228457853
 Sb        17.4897972209       20.4766632262       14.3789986638
 Sb        14.5208293613       23.4530220831       20.4061429624
 Sb        23.6129685678       20.4657907245       14.2897354826
 Sb        23.6529474823       14.4473737780       20.4809995791
 Sb        20.5599635869       23.5340139661       14.2760663683
 Sb        17.4299964174       14.4622906405        8.2776794166
 Sb        20.4335518769       17.4584326449        8.3300720644
 Sb        23.6745762020       23.5792256572       10.7798658274
 Sb        17.6786273354       20.4932611721       20.4533433813
 Sb        17.6359051595        8.4738128305       20.3217219882
 Sb        20.5367743384       17.4428246907       14.3885313169
 Sb        23.6275994600       17.4872886379       17.4608493887
 Sb         8.4660849042       11.3159447313       14.4677777000
 Sb        20.6653022488       17.5030235142       20.4502858180
 Sb         8.6016654606       14.3568237770       11.5073794840
 Sb         8.5168957549       14.4637421807       17.4256530850
 Sb        17.4589819800       20.4649223606        8.3584622254
 Sb         8.5058515023       17.5954292005       14.4957878502
 Sb         8.5829162255       17.4749782214       20.4014934286
 Sb         8.4947642732       20.5774878839       17.4237193523
 Sb         8.2296764101       23.8537157246       20.6924096560
 Sb        17.5659669936       14.4997692978       14.4042276964
 Sb        20.7112496767        8.4951856227       17.3780642494
 Sb        17.5799720666       14.4369281089       20.3895846083
 Sb        20.4609031776       20.4014889541       11.3653644385
 Sb        17.4808513380       17.4816945933       11.3686607485
 Sb        23.4070360344       17.4366705982       11.3940957427
 Sb        11.1142348432        8.1132098942        8.3413363560
 Sb        11.6358776131        8.5916052401       14.3182334463
 Sb        20.5554119936       20.4825788520       17.4319488318
 Sb        11.6257831121       11.4976543634       11.4032952455
 Sb        11.5438058050       11.4201901735       17.4235894265
 Sb        14.4808572923       20.4211360236       23.3778564146
 Sb        11.5034772203       14.4832507186        8.4302347330
 Sb        11.4955220355       14.4782350940       14.3828932726
 Sb        11.5447573523       14.3879366764       20.4446831267
 Sb        11.4882000756       17.6233185311       11.3613344099
 Sb        11.5628550644       17.4660597070       17.3931600802
 Sb        11.4736119573       17.3985636234       23.4425411961
 Sb        11.4925375197       20.6038211419       14.3455553989
 Sb        11.5021200128       20.5058413713       20.2883889077
 Sb        11.4980246488       23.5773124272       17.4291872180
 Sb        20.6619330453       11.4792291879       14.3339856375
 Sb        17.5388760258       17.4771016148       17.4498318319
 Sb        20.6560451187       11.5089806473       20.3830776449
 Sb        23.6756843245       14.4433461949       14.4207836276
 Sb        20.6021949762       14.4992599967       17.3884499684
 Sb        17.7290158866       17.3236752747       23.3912373857
 Sb        23.8993945354       11.1321208619       23.6074163767
 Sb        23.8992703909        8.2659972764       20.6619738249
 Sb        17.5742966639       11.4709424384       11.3062029554
 Sb        17.6632892588        8.4935217608       14.3492596248
 Sb        20.5567375865       14.4392428413       11.3046936661
 Sb        14.6121730381        8.4276062829       11.3002194043
 Sb        14.6336251276        8.3563925318       17.3926028624
 Sb        14.4276584084       11.4422353975        8.3452851307
 Sb        14.5899266860       11.4908327006       14.3942057681
 Sb        14.5740209144       11.3536088277       20.3946890311
 Sb        14.5685234673       14.5107503552       11.4111788040
 Sb        14.5536697601       14.4557228010       17.4266396519
 Sb        14.6444037870       14.3148558165       23.4492211524
 Sb        23.6885208301       11.4911756546       17.4366432466
 Sb        14.4767589809       17.5149807132        8.3240762411
 Sb        14.4818663665       17.4981133400       14.3657121157
 Sb        14.5234161270       17.5165507781       20.4834023084
 Sb        14.4339159995       20.5670288690       11.3363625775
 Sb        14.5535330322       20.4969911498       17.3550933893
 Cl        18.5007557405       23.3302966450        5.5884246238
 Cl        20.2949850357       26.1177771304       11.4581577591
 Cl        26.6853726602        9.1075901734       17.9712422929
 Cl        26.8598588903       12.2820410226       14.9530417449
 Cl        26.1566196361       11.5194233590       20.3861722463
 Cl        16.4428170930       26.6612634553       11.5966406159
 Cl        26.6999987084       16.3804888803       11.5516284439
 Cl        26.2202015541       14.5695974539       17.4190407457
 Cl        26.6465820297       13.8830334810       22.8702278011
 Cl        16.9366055357       26.5369767057       19.9408915128
 Cl        26.4578553924       18.2869242880        8.5720725622
 Cl        26.0931475403       17.5726073385       14.4892401365
 Cl        26.7283740963       16.9920264661       19.7996845296
 Cl        16.7350519554       20.3739783004       26.1297939630
 Cl        26.1661144295       20.2347374030       11.4504526625
 Cl        26.6294601807       20.1624359085       16.7638337913
 Cl        26.4108887370       23.0374068056       13.4711651074
 Cl        18.3075925401       26.4565514464        8.5834426432
 Cl        17.6034423064       25.9907458367       14.5479043969
 Cl         5.8688439887        8.4802771890       13.3364010810
 Cl        22.9876332783       20.5059065670        8.3896059209
 Cl         5.9897250819       11.5466722304       11.4457657335
 Cl         5.3133949308       12.0941756418       16.7286391668
 Cl         5.3469851606       14.5641161287        8.5655079047
 Cl         5.9820446234       14.5273988217       14.4066378969
 Cl         5.3913527334       15.1439175152       19.8679460063
 Cl        20.1685648086       26.4856751511       16.8545088532
 Cl         5.7674777924       16.5422642804       11.5286458298
 Cl         5.9595162032       17.5217834990       17.4619208939
 Cl         6.0411333277       18.5650141581       23.4282428841
 Cl         5.2971500330       19.8320721710       14.9956933384
 Cl         6.1228258368       20.5653475752       20.5584703662
 Cl        14.5542727691       26.1105665814       17.4902843108
 Cl         5.4413371814       22.8762022106       18.0905079439
 Cl        13.5650390754       25.9738354529       23.4381592328
 Cl        23.1015890767       26.3668560323       13.4968979525
 Cl        20.0755548942        5.3944909717       14.8861332099
 Cl        20.7659821016        6.0868984323       20.6347084754
 Cl         8.8019096980        5.5082709527       13.7012531283
 Cl         8.5665196241        9.0823462798       11.2435012231
 Cl         8.9621261638       11.4570024583        8.6333749103
 Cl        11.8471616677        8.5384795802       20.0551695031
 Cl         8.5530189081       13.5004208032        5.8615887940
 Cl        17.7157820994        5.9093848402       17.3324705455
 Cl         8.7524186417       17.5844885109       26.4833645828
 Cl        18.4547196254        5.6841645817       23.2126912886
 Cl        11.7052083213       20.2522908214        8.4908147153
 Cl         8.8067255409       20.6085900377       22.9058088846
 Cl        20.5071556196       22.9911381268        8.4071551459
 Cl         9.2330140283       26.6540069498       18.0920618436
 Cl        17.1041750723        5.3766002806       11.8645482848
 Cl        19.9118420348       16.9081706810       26.6196729486
 Cl        20.5595058648       20.5786698687        5.7988267255
 Cl        17.6688272943       14.3776262549       26.0037698424
 Cl        17.4894238827       17.5552835595        5.7242468905
 Cl        20.3933063703        8.6873039830       23.0806207705
 Cl        11.7403215397        5.6905249342       11.7696328660
 Cl        15.3398789281        5.2267381136       19.7360999605
 Cl        16.7467620327       12.1468335494        5.0987652903
 Cl        11.3153821597       11.3314365285        6.0011235467
 Cl        11.8217714026        5.3366119753       15.5596785240
 Cl        11.9061304865       15.8625841199       26.5389570144
 Cl        11.8910873503       16.9048872900        5.3123943083
 Cl        23.3063359593       18.5242036912        5.5582932369
 Cl        22.9481162225        5.3874618408       18.0604265775
 Cl        15.1408212677       20.0104946173        5.1981945712
 Cl        11.7713245896       19.5309317028       26.7221512317
 Cl        20.3249148101       23.4058512911       20.0743075351
 Cl        14.9040342713       23.4026618601        8.5893179125
 Cl        11.4585788640       23.2727356551       22.9203929089
 Cl        12.2456443903       26.8181038293       15.0547251005
 Cl        11.5068447585       25.9941251668       20.5802775740
 Cl        14.7276839557       23.3181480446       26.6678440109
 Cl        20.7296032632       11.0769983054       25.7309225272
 Cl        19.9189399618       15.2196845166        5.1450210308
 Cl        20.2547016609       11.8608536336        8.4158643256
 Cl        18.4370761173        8.4648940613       26.0578777686
 Cl        22.8658665386       13.6759272257       26.5648681306
 Cl        13.7663845467        5.3410932694        9.0265895014
 Cl        14.7742508255        5.9579550564       14.3335582989
 Cl        13.7126657736        8.9206807233        5.4810315697
 Cl        15.2836261741       11.9856771803       26.6038188326
 Cl        14.3555405476       14.5081080069        5.7871165111
 Cl        14.7631848530       17.4221740858       25.8467472942
 Cl        20.2071795085       20.2644161108       23.3386029169
 Cl        23.5035092489       11.9152256221       11.5458557157
 Cl        14.9611886930        8.5731918952       23.1893265841
 Cl        23.4734549614        8.7784861306       14.6405240359
 Cl        20.3062764489        8.7297004243       11.5725163286
 Cl        17.2404178626        8.8073696085        8.4507839197
 Cl        23.3803054962       14.9466381969        8.4757812883
 Cl         8.2119565683       16.7271493276        8.9138058883
 Cl         8.5853599728       20.2114657252       11.6542725544
 Cl        11.8118257065       23.4781365339       11.6184401772
 Cl         8.7303133432       23.3702002777       14.7339872351
 Cl         8.9332821125        8.4349990992       17.0931121244
 Cl         8.6801446138       11.7002857022       20.1067827094
 Cl        11.8428445818       11.6891284686       23.2630767506
 Cl         8.6862742927       14.7298784879       23.1620641341
 Cl        16.8076768743       23.0285447282       23.7094758920
 Cl        23.3214824802       17.2237745762       23.2726245708
 Cl        23.3675171908       20.4116355701       20.0250843625
