     193
 i =       32, E =     -1747.6637427193
 Cl        19.0559622560       15.9444239625       19.0630804801
 Cl         6.9634217698       19.0553570491       15.9311949610
 Pb         6.7689399742        9.8751857441        9.8558415839
 Cl        18.9668417803       22.1754430418       13.0001353380
 Pb         9.9233466124       16.1036879480       13.0002460745
 Cl        10.0593294804       19.0596184891        6.9309888531
 Cl        10.0691711926        3.8248369063       15.9317881301
 Se        16.1333316589       12.9973704647       19.3055333700
 Pb         9.8821216602       19.2438324033        9.8389704251
 Pb        12.9956835601        9.8907332611       16.1243511321
 Se        12.9991117880       12.9958924979        9.8998738631
 Cl         3.8340349455       10.0782498987       15.9312421756
 Cl        15.9316946484        3.8415337628       10.0702750957
 Se         9.9036960622       16.0963376612       16.1018452131
 Se         9.9068361529       19.3019747516       13.0002406328
 Se        19.2801545817       16.1383075620       13.0002079204
 Cl        12.9931850351        7.0208949126        3.8186761640
 Pb        16.1283719692       16.1245887363       19.2662163561
 Pb         9.8779873004        6.7371155734       16.1826899016
 Cl         3.8503027846       15.9390659226       10.0770580168
 Pb         9.8722143341       16.1284641359       19.2642826578
 Pb         9.8821024084       19.2438453095       16.1615060201
 Se        16.1334314052       12.9973981032        6.6949250654
 Se        12.9978656181        9.8617933266       19.3025726784
 Se        22.2927062059       13.0764225569       13.0002173302
 Cl        19.0552950590       10.0612752264        6.9381649554
 Cl        10.0593290404       19.0595908889       19.0694746091
 Pb         3.7571773592       16.2512701460       13.0002564180
 Cl         3.8271672077       12.9718847885       19.0055016546
 Cl        19.0666731608       19.0726985706       15.9185970134
 Pb         9.9020048619       12.9971550473        9.8609800099
 Pb        16.0938222673       22.3174881926       13.0002103494
 Pb        19.2292840040       16.1166132285       16.1446031868
 Cl        22.1478822407       10.0527087886       15.9233791768
 Pb         9.8697911356        9.8671310973       19.2662191713
 Se        12.9821150243        6.6934267662        9.8735663771
 Cl        22.1641453260       15.9135809611       15.9312354181
 Pb        13.0324804299        6.6051256776       13.0002569920
 Cl        10.0644343849       15.9296281655       22.1644129828
 Pb        12.9990696361       12.9958723083       13.0002373971
 Se        19.2965146602       13.0005153730       16.1302865272
 Cl        19.0666823188       19.0726922741       10.0817901716
 Pb        13.0024824539       16.1009979717        9.8761314468
 Pb        13.0000395613       22.2676958423       16.1858181361
 Se        12.9990860307       12.9958842417       16.1005905726
 Pb        12.9990339724       12.9958308492       19.4017452472
 Cl        19.0348070253        6.9363962794       15.9312017482
 Se        13.0160890973       19.2982961493        9.8735151001
 Cl        22.1478952976       10.0527045568       10.0770422665
 Cl        15.9290012157       22.1669750562       10.0686622810
 Cl        12.9930979484        7.0208450226       22.1818403501
 Se        12.9990533358       12.9958128388       22.2844390750
 Pb        16.1451194272       12.9964211135        3.7170316189
 Pb         9.8964895408        9.9418222548       13.0002575276
 Pb        13.0024670945       16.1009834941       16.1243274293
 Cl         6.9315221423        6.9190874312       15.9186816838
 Pb        12.9996968351       16.1504969916       22.2763554802
 Pb         9.9043207658        3.6742522406       13.0002523129
 Pb         9.8698189377        9.8671498469        6.7342787105
 Se        13.0160833464       19.2982837904       16.1269271212
 Se         9.8918827427        9.8850201023       16.1045873087
 Pb        12.9957149686        9.8907342189        9.8761369609
 Cl        10.0644872381       10.0622203594       22.1688775692
 Cl         7.0306912498       12.9838344216        3.8159591237
 Pb         6.6152823630       12.9887192271        6.5650817530
 Cl         3.8502855231       15.9390640243       15.9234534862
 Se         6.7179481776        9.8534657957       13.0002612251
 Cl        10.0645196983       10.0622461694        3.8316356878
 Cl        18.9675623947       13.0082083402        3.8158817444
 Se        12.9821055698        6.6934095942       16.1269534965
 Pb        22.2557472910       12.9760650791       16.2306809260
 Se         9.8919084658        9.8850362805        9.8959210087
 Pb        12.9956896979        6.5923932323       19.4308448190
 Se         6.7016273169       12.9912698248        9.8701890757
 Pb         6.6595778735       13.0071516944       13.0002696079
 Se         6.7015948194       12.9912657315       16.1303771243
 Pb         6.6152138563       12.9886956593       19.4354508394
 Cl         7.0306160681       12.9837342346       22.1845798206
 Pb        12.9984368909        9.8411452195       22.2763574588
 Pb        12.9957104439        6.5924384881        6.5696677238
 Pb        13.0024787258       19.3993212317        6.5696323135
 Cl        18.9674850326       13.0081329133       22.1845262189
 Cl        15.9290201995       22.1669419613       15.9317656153
 Pb        19.2279502800        9.8676881146        9.8536412432
 Pb        12.9984758167        9.8411971332        3.7241286532
 Se         9.8916350026       12.9919024947       13.0002496243
 Cl        18.9437921228        3.8397324847       13.0002302488
 Pb        16.1160848409        6.7478779207       16.1615644115
 Se         3.7054667304       12.9153847198       13.0002490218
 Se        16.1062683550       16.1067060077       16.1045684302
 Cl         3.8272476643       12.9719536934        6.9950202030
 Pb        19.3386257701       12.9845946359       13.0002118150
 Pb        19.3829398954       13.0030817211        6.5650312915
 Cl        10.0665223667       22.1502180507       10.0702390569
 Cl        12.9741182767        3.8244373423        7.0156165839
 Cl        10.0665451887       22.1502252186       15.9302032347
 Se        19.3063437954        9.8817233138       13.0002249725
 Pb        19.2279446739        9.8676831705       16.1468140099
 Cl        19.0552708710       10.0612848021       19.0622768235
 Cl        10.0448720934        6.9290247905       19.0778849282
 Se        13.0002510201       16.1298240959       19.3026125229
 Cl        13.0050652046       18.9707674715       22.1818170576
 Pb         3.7423830739       13.0157338521       16.2307547020
 Pb        16.1345185536        3.7135780689       13.0002521133
 Pb        16.1017518709       16.0500271163       13.0002227681
 Cl         6.9429074107       15.9305070373        6.9381890740
 Cl        13.0240708076       22.1672931255       18.9848558792
 Pb        22.2144832663       15.8847761389       13.0002069722
 Cl        15.9533132368       19.0627005055        6.9225681361
 Pb        16.1202197218       19.2546840999        9.8177807029
 Pb         9.9019870374       12.9971415650       16.1395239474
 Pb        12.9981420955        3.7240317016        9.8146775493
 Pb        12.9656158798       19.3866770668       13.0002227497
 Cl        10.0644826109       15.9296779756        3.8360725138
 Pb         6.7702437332       16.1240546174        9.8536717014
 Se         6.6918183014       16.1100217555       13.0002609608
 Pb         6.7702243986       16.1240464696       16.1468262604
 Pb         3.7836540130       10.1070032869       13.0002532177
 Se        12.9790947290        3.7298204787       13.0002474494
 Se        16.2476760821       19.3351411394       13.0002055860
 Pb        16.1201926508       19.2546530189       16.1826288119
 Cl         7.0313033355        3.8163909478       13.0002979913
 Pb        16.1284087602       16.1246122135        6.7342157172
 Cl        13.0240904670       22.1673459678        7.0155840439
 Pb        13.0000210409       22.2677041526        9.8146150559
 Cl         6.9428808533       15.9304978851       19.0623198169
 Se        12.9983850503       16.1004298811       13.0002368641
 Cl        12.9740902168        3.8243909513       18.9848845679
 Cl        15.9533087308       19.0626703014       19.0778529034
 Pb         9.8636599858       22.2782658669       13.0002243494
 Cl        22.1641773435       15.9135638598       10.0691742910
 Se        13.0190135420       22.2619506656       13.0002249391
 Pb        16.1161116713        6.7478719058        9.8389154626
 Se        16.0912960532        6.6897882500       13.0002472793
 Pb         6.7689169737        9.8751937174       16.1446782742
 Cl         6.9315322915        6.9190895894       10.0818508211
 Pb        12.9997392057       16.1505484818        3.7241111298
 Cl        10.0691673610        3.8248661684       10.0687048526
 Pb        19.1820305327       19.4551454677       13.0001993205
 Pb        13.0024687491       19.3992743175       19.4308044010
 Pb        19.3828799803       13.0030817971       19.4353807598
 Cl         3.8406092656       18.9753590487       13.0002840511
 Pb        22.2557752929       12.9760532757        9.7697110312
 Pb         6.8162280564        6.5366903942       13.0002657920
 Pb         9.8722457146       16.1285021263        6.7362154755
 Se        16.1062898474       16.1067211289        9.8958650743
 Pb         3.7424126087       13.0157339764        9.7697824319
 Cl        15.9316997344        3.8415399475       15.9302285313
 Se         9.8647954866       12.9943467874        6.6949664028
 Pb        12.9991008535       12.9958745229        6.5987251527
 Pb        22.2410652013        9.7404385582       13.0002143309
 Cl        15.9388676411        6.9320901363       19.0695254828
 Cl        22.1709532792       13.0196783266       19.0054315258
 Cl         6.9421848617       10.0473481287       19.0631504286
 Cl        13.0051554941       18.9708200795        3.8186157183
 Pb         9.8530464575       12.9953305558       22.2834576278
 Cl        15.9337474248       10.0621269493        3.8360765396
 Pb        19.3418419033        6.5878267902       13.0002459951
 Pb        16.0962055619       12.9946213684        9.8609143551
 Cl         7.0543711272       22.1520590778       13.0002625524
 Se        16.1065785984       12.9998482934       13.0002273796
 Pb         9.8531228107       12.9953783166        3.7170412859
 Pb        16.1259825154        9.8632829955        6.7362037745
 Se        16.0944778097        9.8953959045        9.8986293245
 Cl         6.9634214617       19.0553589190       10.0692906863
 Cl        19.0348189035        6.9363879262       10.0692911890
 Cl        15.9388757531        6.9321089326        6.9309609902
 Se        12.9991256426       12.9958566186        3.7160290709
 Cl         3.8340708735       10.0782364338       10.0692590182
 Se         9.9037172907       16.0963341547        9.8986364915
 Pb        12.9981459702        3.7240232690       16.1858270233
 Pb        16.0748548075        9.8880082934       13.0002363052
 Se        16.0944661479        9.8954001268       16.1018383453
 Pb        16.1450461481       12.9963850875       22.2834283107
 Cl         6.9422325323       10.0473644811        6.9373670927
 Se        13.0002935380       16.1298839157        6.6978486022
 Cl        19.0560046812       15.9444255648        6.9373482216
 Cl        22.1576079883        7.0163836835       13.0002068219
 Cl        15.9336662518       15.9295130342       22.1688547559
 Cl        10.0448814783        6.9290629080        6.9226317078
 Cl        22.1710310133       13.0197093127        6.9949774837
 Cl        15.9337126441       15.9295332731        3.8315701322
 Pb        16.1259533765        9.8632575513       19.2642624973
 Cl        15.9337010898       10.0620890039       22.1643940726
 Pb         6.6563204855       19.4039891437       13.0002439083
 Se        19.2965424887       13.0005094869        9.8701159185
 Se        12.9978984617        9.8618498328        6.6979169021
 Pb        19.2293105649       16.1166004319        9.8558135872
 Pb        16.0961751639       12.9946157009       16.1395353581
 Se         9.8647009738       12.9943200300       19.3055323204
 Se        12.9998084932        9.8914132192       13.0002409909
 Pb         9.8780127784        6.7371414638        9.8178325130
 Se         9.7505757493        6.6566316770       13.0002633260
