      35
 i =       35, E =     -1234.2830596604
 Zn         9.8565866205       14.5847174346        9.8665879873
 Zn         9.9388597007        7.4186864022       12.1399626925
 Zn        12.3886529451       12.4620012495        9.5336226900
 Zn        14.5808267748       12.1473946391       12.0637667330
 Zn         7.4188809784       12.1391644704        9.9385798432
 Zn        12.1395583838       14.5845707311       12.1331472722
 Zn        12.0663522124        9.8701848359        7.4130306730
 Zn         7.4935392869        9.8609280018       12.1517234937
 Zn         9.6088195397       12.4583686538       12.4604530491
 Zn        12.4655225352        9.6119973436       12.3864036078
 Zn         9.7899201206       12.1392185044        7.4212372302
 Zn         9.9422355299        9.8607658304       14.5810525387
 Zn        12.1563522592       12.1404588129       14.5779138984
 Zn         9.6054831873        9.6086276156        9.6131569523
 Zn        12.1450835483        7.4251806104        9.8581031399
 Zn        14.5745242409        9.9301412838        9.7825049343
  S        11.0149572563       11.0372162788       11.0003235952
  S        10.9487228128       13.8192866868       13.8192436479
  S         8.2748386387       11.0783232459       13.8162342451
  S        11.1717994902        8.2202429233       13.7780872982
  S        11.0243016895       13.8067199483        8.1730995170
  S        10.8860435149        8.2056801264        8.2252864868
  S         8.2220837324       13.8088139285       11.1276941593
  S        13.7309860823       11.1234567326        8.1384474889
  S        13.7712508659       13.8139477708       10.8691744066
  S        13.8248541711       10.9518621526       13.7524165545
  S         8.2637727400        8.1977621609       10.9404607298
  S        13.8214845533        8.2628880243       11.0203138393
  S         8.1732628146       10.9126836067        8.2702573770
 Cl        10.9004391278       10.9876570437        5.7798308630
 Cl         5.8055477608       10.9847483577       11.0837396524
 Cl        11.0660127069        5.7701653842       11.0110652324
 Cl        10.9974496054       16.2212610843       10.9978716092
 Cl        16.2248589538       11.0498817534       10.9078008514
 Cl        11.0727023301       10.9903461805       16.2293734782
