     608
 i =       69, E =    -23069.5977275249
 Cl         8.5001455694       13.7031210327       16.3676013464
 Cl         8.0788407014       14.1603453854       21.5061668957
 Cl         8.5937156149       16.0171073637       13.7286529138
 Cl         8.5134302452       16.5062299117       19.1023608826
 Cl         8.0869715823       16.8408098945       24.1743253276
 Cl         8.1129340275       18.5046792546       11.4736154181
 Cl         8.4803257251       18.9474262251       16.5804577547
 Cl         8.5416927968       19.2183283099       21.7967257161
 Cl         8.0377342904       19.5585420627       26.8494228278
 Cl         7.9691762738       21.2870442304       14.1962790433
 Cl         8.5102580634       21.6688144971       19.3054709302
 Cl         8.4772280100       21.9369082851       24.4778966904
 Cl         7.9634506009       23.9971974003       16.9150046919
 Cl         8.4951332055       24.3993963707       21.9718274931
 Cl         8.5247994448       24.6618546397       27.2073194864
 Cl         7.9891394229       26.7768874409       19.5903761068
 Cl         8.5046146648       27.1109091554       24.6844148620
 Cl         8.0542831785       29.5511811616       22.3307190452
 Ga         9.7660175623       12.2215883966       17.9570848310
 Ga         9.7623725627       15.0921808386       15.2673836539
 Ga         9.7498324560       15.0772357401       20.6603606179
 Ga         9.9132537181       17.7265784753       12.2183168279
 Ga         9.8457117095       17.7910889286       17.8756247039
 Ga         9.7553781128       17.7944479149       23.3638248694
 Ga         9.6848602805       20.4965086703       15.0756575655
 Ga         9.9015089242       20.4966933154       20.5798667554
 Ga         9.6917110266       20.5636570072       26.0675984449
 Ga         9.6813246858       23.2118733126       17.8007529690
 Ga         9.8486975744       23.2182339767       23.2841175015
 Ga         9.7665864124       23.3708331122       28.8530446161
 Ga         9.6839801348       25.9782807610       20.5081254733
 Ga         9.9240851829       25.9987024675       26.0766832741
 Ga         9.6819609129       28.6976348243       23.3552566707
 Cl        11.4051770718        8.0630274068       18.8398330122
  P        10.8327986162       10.8360047553       16.4675984913
 Cl         8.0588409265       11.3941582229       18.8361292572
 Cl        11.1025492387       13.6343473186       14.0560548130
  P        11.0045349107       13.7404179548       19.2240610069
 Cl        11.1171749002       13.8582262427       24.4386479367
  P        10.9562972182       16.2277974359       10.8788140646
  P        11.1083125729       16.4213863618       16.5115447167
  P        11.0526430593       16.4879993508       21.9235024939
 Cl        11.1328731168       16.5423901195       27.0746611260
  P        11.0022061855       19.0864645675       13.7614754363
  P        11.1245580472       19.1278346247       19.2013485939
  P        11.0225133290       19.2283129814       24.6293830459
 Cl         8.1358450182       22.3044282831       29.6516534010
 Cl        11.3939401784       18.6694297183        8.1271287968
  P        10.9770417309       21.7954843709       16.4845027202
  P        11.1219174416       21.8543492193       21.9192356343
  P        10.9796294443       21.9570319170       27.3415686738
 Cl        11.4131709552       22.3202635629       32.8805686900
 Cl        10.9207599131       24.2515654621       13.9017569563
  P        10.9726691417       24.5262474377       19.1982256245
  P        11.0834346541       24.5707287933       24.6191562339
  P        10.9191516431       24.8356767165       30.1155153593
 Cl        10.9426743355       27.0463174476       16.6625972920
  P        10.9570766103       27.2569887265       21.9429871982
  P        10.9598682703       27.4207340683       27.4393561169
 Cl        11.3759980772       32.8671605546       22.3525586835
  P        10.8318375655       30.0617846718       24.7740044295
 Ga        12.2211440652        9.7713455441       17.9539722812
 Ga        12.3001117364       12.3010451729       15.6682155694
 Ga        12.3852013283       12.3849832636       20.5891955629
 Ga        12.6338301590       15.3329338083       12.0661764829
 Ga        12.3901514397       15.0841253720       17.9506641498
 Ga        12.3867178043       15.0788264628       23.2794235625
 Ga        12.2988669672       17.7161871284        9.7610218389
 Ga        12.3863949398       17.8079874075       15.0865940295
 Ga        12.4512252888       17.7857518901       20.5843869370
 Ga        12.3784610323       17.8672479424       25.9997347810
 Ga        12.3738954365       20.4887646168       12.3873070810
 Ga        12.3900938337       20.5059789692       17.7940762527
 Ga        12.4469191744       20.4974480801       23.2900044587
 Ga        12.3148996972       20.5732132986       28.6814775871
 Ga        12.3115819439       23.2072520370       15.0911760032
 Ga        12.3853342304       23.2159163115       20.4993428482
 Ga        12.3912913293       23.2056651853       25.9889925514
 Ga        12.2162808941       23.3714201730       31.2403217850
 Ga        12.3109930829       25.9135010064       17.7987855802
 Ga        12.3757488651       25.9074895542       23.2039601823
 Ga        12.3134286083       25.9948963749       28.6851979293
 Ga        12.3024601438       28.6069299447       20.5621740159
 Ga        12.0634012625       28.4355233318       25.7546567563
 Ga        12.1364271006       31.1411426787       23.2782326596
 Cl        13.7139091026        8.5014814356       16.3729568863
 Cl        14.1770094593        8.0790601804       21.4516204119
 Cl        13.6370099411       11.1022662978       14.0594597183
  P        13.7408200459       11.0288085337       19.1986855292
 Cl        13.8815761754       11.1002928350       24.4397107485
  P        13.5995698903       13.5979914617       10.9715317823
  P        13.7626048172       13.7885359194       16.5597625580
  P        13.7430379178       13.7423401872       21.9034472155
 Cl        11.0470570044       29.8978154102       19.4525269666
 Cl        13.8619448240       16.3413366196        8.5282610289
  P        13.7303112378       16.4334290106       13.7804009226
  P        13.7637514233       16.4494363570       19.2050643969
  P        13.7159674103       16.4947250674       24.5749106532
 Cl        16.8340495719       16.8662865708       32.9079423029
  P        13.7235645651       19.0778168043       11.0480202991
  P        13.7178532107       19.1238891748       16.4628271277
  P        13.7614144954       19.1631239094       21.8873247912
  P        13.7168095344       19.2216743706       27.3023783650
 Cl        14.1240366890       19.5268901374       32.9048064157
 Cl        14.1383604533       21.3623943075        8.0713857094
  P        13.6837590090       21.8325893224       13.7519456886
  P        13.7168879166       21.8352106167       19.1605096268
  P        13.7524037287       21.8723255505       24.5916920175
  P        13.6733487120       21.9419556344       30.0050745893
 Cl        13.8235499839       24.2828916236       11.0176097585
  P        13.6660788579       24.5363933645       16.4573786241
  P        13.7194427462       24.5412815572       21.8610982220
  P        13.6996446201       24.5826636841       27.2923867951
 Cl        13.8212337945       24.7053169550       32.4711138956
 Cl        13.7931029060       27.1024186269       13.8501234838
  P        13.6601096339       27.2593997496       19.1796105605
  P        13.7113388576       27.2215555887       24.5790702581
  P        13.5574213203       27.4550249012       30.0007823385
 Cl        13.8594382176       29.9682657222       16.6642326400
  P        13.6674639137       29.9560125736       21.9334460453
 Cl        13.7802174448       29.8922661815       27.1644151825
 Cl        14.1125023012       32.9327479310       19.6080550767
 Cl        13.6918863518       32.4333246609       24.7794650960
 Ga        15.0969218432        9.7694870599       15.2764497765
 Ga        15.0809017481        9.7538380559       20.5957582796
 Ga        15.3338907101       12.6347370823       12.0673135686
 Ga        15.0786871783       12.4475620225       17.9455071734
 Ga        15.0792112046       12.3846269358       23.2742503470
 Ga        15.0111036915       15.0111320939        9.9151472594
 Ga        15.0905221034       15.0952142297       15.0949229810
 Ga        15.0864986047       15.0900956484       20.5803404564
 Ga        15.3413006838       15.3437447583       25.6743085477
 Ga        15.0836435796       17.8147138800       12.4519690487
 Ga        15.0906035141       17.7963157766       17.8042231473
 Ga        15.1010088499       17.8021367390       23.2148047715
 Ga        15.0112956020       17.8028551141       28.6189177114
 Ga        15.0104501407       20.5018520428        9.7589235915
 Ga        15.0260756137       20.5126859727       15.0968548093
 Ga        15.0932877615       20.5046298544       20.5025629743
 Ga        15.0820477574       20.4983620622       25.9200478675
 Ga        14.9430773815       20.4978533346       31.2475596767
 Ga        15.0114305718       23.2146254231       12.3915757317
 Ga        15.0248046061       23.2128523446       17.7897494755
 Ga        15.0871902092       23.2037583398       23.2079069097
 Ga        15.0114595360       23.2079135661       28.6012691723
 Ga        15.0087018873       25.9121866874       15.0901372837
 Ga        15.0162429262       25.9081909589       20.4879647839
 Ga        15.0662240945       25.8456904856       25.9207299580
 Ga        14.9267023340       26.0644048694       31.0697935490
 Ga        15.0042334058       28.6090340402       17.7986596506
 Ga        15.0003639604       28.5348503927       23.1947095389
 Ga        15.2409613833       28.4446238240       28.8683179515
 Ga        14.9363702360       31.2361135838       20.4984942705
 Ga        15.0940040076       31.1599850840       25.8365557593
 Cl        16.0364445689        8.6036245398       13.7431519825
 Cl        16.5366485239        8.5433086437       19.0789690335
 Cl        16.8656958306        8.0854113508       24.1333929779
  P        16.2351108163       10.9589631938       10.8805439414
  P        16.4125211817       11.1468201997       16.5095232359
  P        16.4779592234       11.0559200047       21.8898974220
 Cl        16.5678075458       11.1122372307       27.0799383993
 Cl        16.3432711007       13.8628268272        8.5277551953
  P        16.4316964508       13.7377817152       13.7813618204
  P        16.4575288774       13.7820891168       19.2085183581
  P        16.4913185393       13.7163674249       24.5719777199
 Cl        16.5302024011       13.8365572841       29.8322542238
  P        16.4138499393       16.4167242033       11.1377477319
  P        16.4294121101       16.4340475025       16.4555488396
  P        16.4514703721       16.4536631779       21.8682162483
  P        16.4595195319       16.4629296763       27.2955692095
 Cl        16.5437830617       19.0317388551        8.5562574994
  P        16.4183092191       19.1555711352       13.7871769866
  P        16.4365056742       19.1415140878       19.1499230485
  P        16.4410900166       19.1503920461       24.5581916831
  P        16.3936437258       19.1787793916       29.9550985065
  P        16.4095574695       21.8282699705       11.0492015510
  P        16.3954594069       21.8360000709       16.4592523485
  P        16.4386323366       21.8473731080       21.8505739635
  P        16.4090057838       21.8731534372       27.2430145668
 Cl        16.5102377910       21.9202664819       32.4554186161
 Cl        16.8682906425       24.0762946940        8.0534531713
  P        16.3872321633       24.5424790687       13.7401415346
  P        16.3938078392       24.5375755109       19.1573943652
  P        16.4443521087       24.5431688296       24.5474145172
  P        16.3624140764       24.5964428669       29.9026998285
 Cl        16.6170400506       27.0760625617       11.0133057241
  P        16.3790303770       27.2534486765       16.4597462180
  P        16.3940110689       27.2141399338       21.8626196483
  P        16.4175187789       27.2180544047       27.2566541250
 Cl        16.3161610122       27.1879273582       32.4649528643
 Cl        16.6320074436       29.9705224460       13.9004344417
  P        16.3895760374       29.9496952122       19.2009659447
  P        16.4015030678       29.8135880206       24.5719742193
  P        16.2027868805       30.0968709603       30.0826241279
 Cl        16.8586185316       32.9319460781       16.9129598744
 Cl        16.4751193092       32.4461459728       21.9950128302
 Cl        16.1662551912       32.4364590536       27.2215437358
 Ga        17.7330274364        9.9160390760       12.2201179783
 Ga        17.8021057063        9.9188320178       17.8730394530
 Ga        17.7956206458        9.7557370568       23.2971436886
 Ga        17.7207922164       12.3042686574        9.7617530759
 Ga        17.8141882859       12.4035369434       15.0874933677
 Ga        17.7917661393       12.4577805886       20.5810375491
 Ga        17.8580265190       12.3787969235       25.9912633483
 Ga        17.8124620180       15.0856133531       12.4498223313
 Ga        17.7993744516       15.0973918520       17.8014424609
 Ga        17.8013535588       15.1041092546       23.2143034554
 Ga        17.7904873368       15.0170193663       28.6217696580
 Ga        17.7826486888       17.7935123017        9.9241594851
 Ga        17.7905740270       17.8004834597       15.1059366903
 Ga        17.7966935829       17.7982877135       20.5022567241
 Ga        17.7912382292       17.7967205624       25.9026719518
 Ga        17.7057846491       17.7800853457       31.2429933168
 Ga        17.7252798714       20.5621027172       12.4619925230
 Ga        17.7854929174       20.5065064461       17.7946716188
 Ga        17.7927729389       20.5004289975       23.2061489169
 Ga        17.7123485520       20.4850872998       28.5432279147
 Ga        17.7209753939       23.2268495931        9.7573748971
 Ga        17.7146968727       23.2162011665       15.0990729690
 Ga        17.7837129901       23.2086330927       20.4966480450
 Ga        17.7903250412       23.2042887168       25.9097717766
 Ga        17.7084799730       23.2143340967       31.0902881523
 Ga        17.7152014804       25.9167186412       12.3887246818
 Ga        17.7126598368       25.9034237192       17.7896740689
 Ga        17.7884092252       25.9001535644       23.2078260406
 Ga        17.7907325413       25.9105809730       28.6144231947
 Ga        17.7093644154       28.6101873865       15.0951238549
 Ga        17.7103601083       28.5385288278       20.4947617952
 Ga        17.8012788847       28.5399578690       25.9867261511
 Ga        17.6389587696       28.7686121670       31.2441586243
 Ga        17.7016775538       31.2387339181       17.7954015721
 Ga        17.7257848963       31.0791921011       23.2112917768
 Ga        17.7156755042       31.1549717052       28.7835549259
 Cl        18.9629381425        8.5507480758       16.5759769523
 Cl        19.2472584245        8.5482873678       21.7748984284
 Cl        19.5915794056        8.0952785472       26.8214334682
 Cl        18.6818692329       11.3977590556        8.1328892953
  P        19.0898388205       11.0312087120       13.7549310763
  P        19.1651191399       11.1716645608       19.1959182633
  P        19.2100341051       11.0418909155       24.5884190268
 Cl        19.3363342790       11.0752103357       29.9055504323
  P        19.0855804596       13.7437631230       11.0387319293
  P        19.1415897780       13.7464036124       16.4566609083
  P        19.1669595878       13.7732526081       21.8849265572
  P        19.2024591092       13.7268317499       27.2947265938
 Cl        19.5111664838       14.1646183187       32.9801022187
 Cl        19.0247791578       16.5763249306        8.5442113663
  P        19.1383249794       16.4439903307       13.7806993600
  P        19.1433890826       16.4445097167       19.1482973220
  P        19.1476667947       16.4464904960       24.5606398731
  P        19.1194850260       16.4282165401       29.9787514105
  P        19.1180298469       19.1652805051       11.1762080006
  P        19.1389224575       19.1464725423       16.4522322099
  P        19.1443326923       19.1461542479       21.8502809100
  P        19.1186825170       19.1439376915       27.2410181645
 Cl        19.2085295570       19.2328404117       32.4557044234
 Cl        19.2483549066       21.7347251252        8.5558277639
  P        19.1148751879       21.8698189067       13.7842513986
  P        19.1394101883       21.8488542904       19.1473229534
  P        19.1407520625       21.8480682098       24.5548281358
  P        19.0822165862       21.8485626834       29.8534232807
  P        19.1389410524       24.5596797143       11.0324725578
  P        19.0996164424       24.5412678598       16.4583091827
  P        19.1402806395       24.5479395038       21.8504957210
  P        19.1311995424       24.5469518978       27.2702836017
 Cl        18.9873799998       24.4047269621       32.4790052205
 Cl        19.6301953991       26.8319830803        8.0479526979
  P        19.0914982301       27.2510097246       13.7584577481
  P        19.0932618400       27.2108254369       19.1613107826
  P        19.1301521747       27.2188141424       24.5928397894
  P        19.0360584553       27.2785298012       30.0187065443
 Cl        22.3485520306       29.6471901703        8.1945500397
  P        19.1110004395       29.9406103520       16.4892122875
  P        19.0944834415       29.8183098558       21.8824198811
  P        19.0745436962       29.9622125544       27.2913743793
 Cl        19.5522747461       32.9351724810       14.2230263182
 Cl        19.2038124026       32.4509012991       19.2889402093
 Cl        18.9637675650       32.4319314090       24.4628698512
 Cl        18.6087102312       32.9068745189       29.5229404223
 Ga        20.5077511704        9.7535841161       15.0815120040
 Ga        20.5212152017        9.9223480912       20.5736986021
 Ga        20.5687063551        9.7517247126       25.9999421588
 Ga        20.4944125480       12.3914662024       12.3850459714
 Ga        20.5646758652       12.4573880436       17.7938741087
 Ga        20.5032399643       12.4550184022       23.2793804988
 Ga        20.5083159208       12.3195065610       28.6692434821
 Ga        20.4977647085       15.0731111927        9.7605837484
 Ga        20.5149949565       15.0847692187       15.0933066704
 Ga        20.5076699559       15.1038796396       20.5022217151
 Ga        20.4929656784       15.0879552841       25.9186670015
 Ga        20.4198998487       15.0119728100       31.3051154465
 Ga        20.5026202115       17.7892542447       12.4598162902
 Ga        20.5050909306       17.7939118063       17.7947027717
 Ga        20.4991943398       17.7970840783       23.2069623428
 Ga        20.4215594730       17.7241846102       28.5482795660
 Ga        20.4885066033       20.5040246215        9.9245751897
 Ga        20.4899445450       20.5058447519       15.1037824405
 Ga        20.4982642039       20.5020586918       20.5008727179
 Ga        20.4937952400       20.4999518041       25.9054425040
 Ga        20.4292753059       20.4944017239       31.0828043653
 Ga        20.4234136057       23.2714672183       12.4599429317
 Ga        20.4856012338       23.2091458760       17.7957659086
 Ga        20.4986362853       23.2075170724       23.2111300225
 Ga        20.5012632495       23.2174866061       28.6016954485
 Ga        20.4717191359       25.9920450726        9.7613872498
 Ga        20.4173588391       25.9102424107       15.0981316243
 Ga        20.4917994460       25.9004250370       20.5053764744
 Ga        20.5084921070       25.9111428593       25.9790093810
 Ga        20.4316289532       25.9746957426       31.3124822813
 Ga        20.4296768267       28.6265651229       12.4526643275
 Ga        20.4154780300       28.5375811685       17.7965287824
 Ga        20.4994958574       28.5411431961       23.2795234587
 Ga        20.4370809658       28.6112673080       28.6861609676
 Ga        20.4148211845       31.2455030050       15.0927874860
 Ga        20.4267615569       31.0753791091       20.5243637238
 Ga        20.4933830547       31.2406236809       25.9950995154
 Cl        21.3187965474        8.0406483503       14.2107417135
 Cl        21.7170404577        8.5620049923       19.2920109907
 Cl        21.9790060094        8.5489978050       24.4692202342
 Cl        22.2992473901        8.1511652570       29.6365994953
 Cl        18.5232740691        8.1174400218       11.4875485355
  P        21.8329549754       11.0341109561       16.4839837845
  P        21.8899497596       11.1632674984       21.9049523673
  P        21.9413646562       11.0271358514       27.3243708167
 Cl        22.2910809902       11.4574398906       32.9522829337
 Cl        21.3722508072       14.1939564447        8.0816402251
  P        21.8313503001       13.7385080484       13.7415089292
  P        21.8798372143       13.7767654964       19.1614550796
  P        21.8673224370       13.7740977968       24.5879784785
  P        21.8460609455       13.7102410524       30.0309148714
  P        21.7996339064       16.4766543576       11.0574352864
  P        21.8529775123       16.4371632808       16.4535982386
  P        21.8483607382       16.4497595359       21.8549271737
  P        21.8400219432       16.4313266428       27.2539894968
 Cl        21.9073217287       16.5385105214       32.4762838278
 Cl        21.7215776794       19.2783521139        8.5460629273
  P        21.8393276475       19.1478096656       13.7813056975
  P        21.8483792323       19.1487855794       19.1467174060
  P        21.8432604572       19.1470774589       24.5601802749
  P        21.7864495743       19.1336250769       29.8323694879
  P        21.8237714748       21.8729151757       11.1768522250
  P        21.8448544492       21.8537738607       16.4513002514
  P        21.8455216341       21.8510111988       21.8533504182
  P        21.8302786217       21.8547243325       27.2469232946
 Cl        21.6862926694       21.6938248559       32.4564597200
 Cl        21.9972009790       24.4762774398        8.5567516289
  P        21.8285165686       24.5716285813       13.7779138461
  P        21.8479185750       24.5499103949       19.1477162295
  P        21.8282728854       24.5502345305       24.5841862271
  P        21.7735416816       24.5469849808       30.0105384514
  P        21.8526323263       27.3110134557       11.0689157065
  P        21.8040234072       27.2236343352       16.4645594140
  P        21.8312669102       27.2154865392       21.8966539881
  P        21.8159943457       27.2670184003       27.3283023550
 Cl        21.3332928445       26.8031153205       33.0026771197
  P        21.8433984903       29.9878480293       13.7863985956
  P        21.7938220377       29.8137355704       19.1942672979
  P        21.8009605015       29.9459394726       24.5848320076
 Cl        18.6572619976       29.6590087033       32.8545129659
 Cl        22.2304064707       32.9493547075       11.4961182000
 Cl        21.8830951639       32.4519230147       16.6290521353
 Cl        21.6779528510       32.4303732633       21.7612452131
 Cl        21.3535507085       32.9592954104       26.8054709591
 Ga        23.2828399494        9.7581044074       17.7979122136
 Ga        23.2817460869        9.9284323425       23.2866331375
 Ga        23.3510563354        9.7608736192       28.7805831098
 Ga        23.2136694186       12.3867213687       15.0879891674
 Ga        23.2730917877       12.4532512095       20.4988055791
 Ga        23.2032707534       12.4467545449       25.9812680328
 Ga        23.2107390808       12.2150096476       31.2229198158
 Ga        23.2072684947       15.0860432559       12.3889293163
 Ga        23.2575300260       15.0906681792       17.7865038945
 Ga        23.2090844961       15.1002754470       23.2094965371
 Ga        23.1261764673       15.0159368639       28.6102393577
 Ga        23.2024645230       17.7759452038        9.7586024785
 Ga        23.2109917531       17.7779805921       15.0930532807
 Ga        23.2052043715       17.7955588651       20.5001830635
 Ga        23.2007493606       17.7929827907       25.9083600199
 Ga        23.1291097909       17.7943004575       31.0933365775
 Ga        23.1983164609       20.4861725536       12.4600027389
 Ga        23.2061121391       20.5002569213       17.7996667707
 Ga        23.2020348846       20.5052598793       23.2128230336
 Ga        23.2022882975       20.5059797423       28.5462351839
 Ga        23.1925923931       23.2037844200        9.9236324824
 Ga        23.1907786108       23.2068070631       15.1075544960
 Ga        23.2039157724       23.2074098332       20.5120018349
 Ga        23.2068907501       23.2152117147       25.9216682659
 Ga        23.2015215273       23.2145737124       31.2504599943
 Ga        23.1241686611       25.9878562754       12.4565805071
 Ga        23.1958471802       25.9039471176       17.8025275063
 Ga        23.2078856638       25.9095461544       23.2826520645
 Ga        23.1961511731       25.9125304184       28.6784607930
 Ga        23.2044514914       28.8592327354        9.9393831182
 Ga        23.1186708232       28.6078847161       15.1511793150
 Ga        23.1993782034       28.5408718287       20.5818398279
 Ga        23.2009677312       28.6100248146       25.9918610279
 Ga        23.1990509440       31.3118279127       12.3783833882
 Ga        23.1308210927       31.0881519741       17.8664184981
 Ga        23.2017991045       31.2410738514       23.2866656932
 Cl        24.0675376337        8.0451247899       16.9047152750
 Cl        24.4445714700        8.5431247429       22.0029330899
 Cl        24.6687997818        8.5852178517       27.2006134293
 Cl        24.2990106963       13.9350238579       11.0001754504
  P        24.5802731860       11.0400013023       19.2079286448
  P        24.6156390908       11.1649569997       24.6348155582
  P        24.7381702597       10.9264349845       30.1585306815
 Cl        24.0828624272       16.9226214641        8.0707430645
  P        24.5634847730       13.7236938310       16.4553572035
  P        24.5734791114       13.7727739476       21.8738695290
  P        24.5563272190       13.7677802787       27.3057221920
 Cl        24.7405121744       13.7750480085       32.5048861103
  P        24.5468853701       16.4516969400       13.7388739230
  P        24.5572657788       16.4525725521       19.1588454110
  P        24.5434613639       16.4481771863       24.5676853725
  P        24.5062656120       16.4322073490       29.8819835440
  P        24.4984170715       19.1653732187       11.0674224590
  P        24.5454944337       19.1335067819       16.4528925726
  P        24.5396862185       19.1445587356       21.8691399018
  P        24.5453651353       19.1377074148       27.2501953357
 Cl        24.3837457466       19.0046211064       32.4619005577
 Cl        24.4379942863       21.9570943464        8.5677094757
  P        24.5370346758       21.8210433481       13.7924325853
  P        24.5533681244       21.8480363497       19.1648307278
  P        24.5416714182       21.8534773480       24.5695044031
  P        24.5030935467       21.8067710731       29.9562715610
  P        24.5300150516       24.5859885973       11.1614763925
  P        24.5595379379       24.5517589257       16.4418491924
  P        24.5335880771       24.5548300487       21.8895996741
  P        24.5208293706       24.5444491646       27.2977920650
 Cl        24.0586706456       24.0428592577       32.9649251101
 Cl        24.8453012832       27.4117357332        8.7023995611
  P        24.5182147083       27.2703509076       13.7944180464
  P        24.5295483417       27.2268982368       19.1913358055
  P        24.5381523100       27.2614088273       24.6111674104
 Cl        24.3190791762       27.0730593952       30.0317872058
  P        24.6823716090       30.1986953769       11.0329808763
  P        24.5135582525       29.9126775568       16.4796305186
  P        24.5085443331       29.9447652828       21.8801195644
 Cl        24.3129746202       30.0045903186       27.1147515646
 Cl        24.5720848313       32.5382036452       13.9487809138
 Cl        24.3647787813       32.4537271167       19.1091732888
 Cl        24.0612063655       32.9576420897       24.1015188211
 Ga        25.9994088420        9.7582586000       20.5725680352
 Ga        26.0653636505       10.0043639488       26.0781884016
 Ga        25.9647119724       12.3813614755       17.7978887678
 Ga        25.9785643813       12.4586529389       23.2232655304
 Ga        25.7434334574       12.1396042246       28.5285486935
 Ga        25.9154168310       15.0807520987       15.0904082948
 Ga        25.9159214206       15.0885429288       20.4988711671
 Ga        25.9086935848       15.0892275886       25.9156950253
 Ga        25.8199713307       15.1726067539       31.2399729521
 Ga        25.9122742006       17.7811321803       12.3885767268
 Ga        25.9101628485       17.7791090231       17.7946897682
 Ga        25.8994356511       17.7906588182       23.2137035520
 Ga        25.9167936768       17.8112846851       28.6046817982
 Ga        25.9082980990       20.4205096704        9.7620714128
 Ga        25.9154311782       20.4280197430       15.0939375617
 Ga        25.8977981281       20.5059343261       20.5597130805
 Ga        25.9051707629       20.5125290166       25.9216114171
 Ga        25.9173154153       20.5065916689       31.2502551592
 Ga        25.8515399526       23.1412306508       12.4462737635
 Ga        25.8950592725       23.2010263841       17.8152120587
 Ga        25.9061784647       23.2569866876       23.2819243021
 Ga        25.9058786423       23.2057449417       28.6215066732
 Ga        25.8329719530       25.7493560918        9.6935591542
 Ga        25.8949926361       25.9209943961       15.0978470792
 Ga        25.9009479841       25.9138373476       20.5815689373
 Ga        25.9081212160       25.9160587942       25.9895371290
 Ga        25.5841413543       29.0148514441       12.7111585703
 Ga        25.8399773041       28.6087955106       17.8771354672
 Ga        25.9052344528       28.6130845016       23.2855947694
 Ga        25.9125535622       31.1576020202       15.0904390517
 Ga        25.9066909705       31.2462597653       20.5833289596
 Cl        26.8054694193        8.0755139531       19.6313714859
 Cl        27.1537322820        8.5829864427       24.7425872927
 Cl        27.0878261550       11.0375128138       16.6282905429
  P        27.2957973535       11.0298081468       21.9790868403
  P        27.4194836252       11.0292106362       27.5144576080
 Cl        27.1325375656       13.9213365768       13.8195340520
  P        27.2625329367       13.7172719881       19.2078443844
  P        27.2679812162       13.7511872078       24.6297210473
 Cl        27.1495943032       13.8454014705       29.9763630813
 Cl        27.1425430953       16.7922096508       10.9817894913
  P        27.2586881544       16.4132392058       16.4938967650
  P        27.2328751940       16.4213163998       21.8913826513
  P        27.2220971038       16.4330874126       27.3015665175
 Cl        27.2134734901       16.2500201091       32.4887475261
 Cl        26.8235112347       19.5753900246        8.0912295759
  P        27.2922143887       19.1060018292       13.7581982421
  P        27.2077065034       19.1237466200       19.2009613706
  P        27.2194130942       19.1351528413       24.5889891867
  P        27.2391210650       19.1098223885       29.9820883900
  P        27.1805824436       21.8463660835       11.0629021244
  P        27.2153696190       21.7963861145       16.4926000484
  P        27.2211341655       21.8751166008       21.9070230262
  P        27.2451173654       21.8305497833       27.2786270958
 Cl        26.7388176357       21.3666859343       32.9662145132
 Cl        27.0489115962       24.7349603908        8.3222525614
  P        27.2213680676       24.4686378441       13.7817937602
  P        27.2185760313       24.5700300296       19.1776424314
  P        27.2675818672       24.5715418201       24.6089023709
 Cl        27.0619913204       24.3023231647       30.0019915481
 Cl        27.3999792864       26.8600665485       11.0684957257
  P        27.1938623965       27.2528185156       16.4894937068
  P        27.2428818476       27.2713525008       21.8857475411
 Cl        11.0240620227       21.4713794203       11.0935262187
  P        27.3280003394       30.0846273485       13.6875482762
  P        27.2035106913       29.9954213543       19.1359994172
 Cl        27.0926462391       29.9933627801       24.3457605700
 Cl        27.0573021572       32.5403133214       16.4272887807
 Cl        26.7856238297       32.9394033171       21.4273332087
 Ga        28.7770059420        9.8362180430       23.4399555042
 Ga        28.6240462259       12.3794054580       20.5873282645
 Ga        28.6258374515       12.3864608833       26.0688032590
 Ga        28.6171593423       15.0223514348       17.8475494821
 Ga        28.5868244668       15.0738352370       23.2708335043
 Ga        28.8674706097       15.2619838562       28.5164939803
 Ga        28.6213474704       17.7207676455       15.1566282593
 Ga        28.5412544646       17.7262730761       20.5120218228
 Ga        28.5486828505       17.8069052328       25.9860218452
 Ga        28.7800936796       17.7975843797       31.1606930750
 Ga        28.5332311406       20.5816013656       12.4770285924
 Ga        28.5405268143       20.4318109275       17.8603422409
 Ga        28.5390012171       20.5124861672       23.2799221261
 Ga        28.6131661736       20.4962804767       28.6231581990
 Ga        29.1074183391       22.5525635610        9.9368743130
 Ga        28.5415035456       23.1171102123       15.1583029942
 Ga        28.5374820184       23.2662297432       20.5847060711
 Ga        28.6110494084       23.2122206897       25.9804747948
 Ga        28.7008397739       25.2501348213       12.2216414123
 Ga        28.5374432724       25.9829907447       17.8840318855
 Ga        28.6104696471       25.9560900846       23.2850654963
 Ga        28.2889481585       28.9620179765       15.4147176361
 Ga        28.5461413378       28.6268899711       20.5141257120
 Ga        28.6229527708       31.3061760266       17.7927104877
 Cl        29.5952594373        8.1953751444       22.3998186204
  P        30.0385081707       10.9629702012       24.9207104276
 Cl        29.9631173406       13.9389871380       16.6403321009
  P        29.9645070930       13.7134506072       21.9954243027
  P        29.9971467173       13.6129605498       27.4862992533
 Cl        32.9109704256       19.5700872095       14.2490776827
  P        29.9515443642       16.4074662543       19.2441648284
  P        29.8714316160       16.4340556467       24.6492812236
  P        30.0904340499       16.2797269491       30.1292498719
 Cl        29.9882709908       20.3412088193       10.7654705996
  P        29.9404759856       19.1203528266       16.5604907735
  P        29.8244439998       19.1294486289       21.8990380087
  P        29.9647955046       19.0925975290       27.3075222357
 Cl        29.4700158437       22.2508425023        7.8973782293
  P        29.9735669205       21.8368148173       13.8549708327
  P        29.8226785696       21.8534101310       19.2137044909
  P        29.9449888709       21.8172287793       24.5825815413
 Cl        29.5167712871       18.7061182002       32.9056191331
  P        30.2361727805       24.3520925572       10.8571603242
  P        29.8078262522       24.5454264100       16.5035722316
  P        29.9559190171       24.5644322421       21.8776958888
 Cl        29.9773293354       24.3345768675       27.1260899206
 Cl        29.8912554289       26.8724578053       13.5978537065
  P        29.9476601202       27.2954293565       19.1398957972
 Cl        29.9827442798       27.1546086422       24.3421480497
  P        29.9632072140       30.1704657271       16.3068661166
 Cl        32.8701323615       29.5775300230       18.5671646887
 Cl        29.5366489154       32.9342259819       18.7458023349
 Ga        31.1644476109       12.2282621824       23.4409864020
 Ga        31.2437982717       14.9983491487       20.5876705141
 Ga        31.0470097672       14.9966275536       26.0816334079
 Ga        31.2457274038       17.7105380652       17.8710433443
 Ga        31.0777290430       17.7859504511       23.2864791966
 Ga        31.2351785382       17.7159706825       28.7756941013
 Ga        31.2382465110       20.4075336973       15.1735785263
 Ga        31.0753163540       20.4937226961       20.5771414728
 Ga        31.2415378399       20.5004479742       25.9993667377
 Ga        31.3179903304       23.0470662881       12.3795042415
 Ga        31.0763407313       23.1979676535       17.8746470738
 Ga        31.2394191117       23.2192825617       23.2884757028
 Ga        31.1611084355       25.7524413549       15.1630009060
 Ga        31.2351876961       25.9949669894       20.5811644145
 Ga        31.0608411703       28.8566536088       17.7975234959
 Cl        32.8059670201       11.4033935773       22.4056537916
 Cl        32.9309164410       14.2035220183       19.6458245748
 Cl        32.4280762111       13.8656870977       24.7336869560
 Cl        32.9417416260       16.9160281709       16.9492845447
 Cl        32.4425522941       16.5761931482       22.0103622118
 Cl        32.4496891305       16.3845322061       27.2023673176
 Cl        32.4399886569       19.2727802734       19.3120069754
 Cl        32.4614804189       19.0718131885       24.4597240224
 Cl        32.8447227522       18.7447394162       29.6539716775
 Cl        33.0930694149       22.1838542592       11.6689522297
 Cl        32.4358825430       21.9735276313       16.6025303739
 Cl        32.4590230849       21.7541231078       21.7618726585
 Cl        32.9146444792       21.4241642416       26.8423359485
 Cl        32.5130034722       24.6328254436       13.8764635533
 Cl        32.4455877264       24.4932917162       19.0248771140
 Cl        32.9307792696       24.1231417489       24.1124325680
 Cl        32.3074029155       27.3281027666       16.0715615612
 Cl        32.9469598817       26.8711382291       21.3836377989
 Cl        29.8534414640       21.5787706462       29.9478735250
 Cl        21.5230878795       29.9289652103       29.9315343713
 Cl        29.8815381525       29.9274656294       21.5198246409
 Cl        11.0789867653       11.0604057024       21.5938438583
 Cl        13.8735273692       16.5113822720       29.8362416749
 Cl        11.0984618660       19.3359649925       29.8854332050
 Cl        29.8780289956       11.1475747165       19.4137030980
 Cl        24.2827825799       11.0208232935       13.8884843578
 Cl        30.0059443317       16.7737523858       13.8680967269
 Cl        21.4995397193       11.0450279925       11.1071291073
 Cl        19.4000072392       29.9111721816       11.1268514953
 Cl        27.1197707691       27.1491981941       27.1907112088
