     149
 i =       34, E =     -3867.1722073090
 Hg        12.4388974053       13.5959296897       11.3099597815
 Hg        12.4164586765       11.1478932418       14.2221739703
 Hg        10.6356553276       14.4128991568       14.4730586541
 Hg        15.7035040268       15.7539321255       10.5769511936
 Hg        15.7696987676       13.0877304021       13.3687661434
 Hg        13.5242600959       16.7129225639       13.5907551716
 Hg        15.7033316036       10.7839453488       16.4563993823
 Hg        13.5118433597       13.9080895583       16.9121026405
 Hg        11.6842248728       17.2568515415       16.8888624904
 Hg        18.8154506610       15.3906885562       12.7829210681
 Hg        16.8028470358       18.6316761977       13.0328489220
 Hg        18.8227035689       12.8876219910       15.7565651749
 Hg        16.9673692900       16.2621594293       16.0716131944
 Hg        14.6461544194       19.4534613438       16.2666919520
 Hg        16.7828711780       13.6638429356       18.9029629568
 Hg        14.6388657366       17.0179484570       19.1710896759
 Hg        11.6222049278       10.6907472949        8.9451025541
 Hg         9.4030224568       14.3553141208        9.0655035031
 Hg        11.5964530376        8.3336504952       11.7585077259
 Hg         8.4337353095       11.2553755634       11.8115901977
 Hg         7.3498613746       15.0909998158       12.1187789771
 Hg         9.3718977988        9.0696366434       15.3566821641
 Hg         7.3452671349       12.2238424174       15.5198744292
 Hg        14.6877326497       12.7077054340        7.8920992829
 Hg        12.4120516930       16.3465965776        8.1117476938
 Hg        14.9379236970        9.5136920539       10.3760552508
 Hg         9.7093107321       17.7786174377       10.8108443260
 Hg        14.6398952025        7.6457947568       13.9328876083
 Hg         8.2165761236       17.8700329483       14.5747214073
 Hg        12.3853326630        8.4531947685       17.4946484120
 Hg         9.6682452019       11.3737943670       18.4263036372
 Hg         8.2052954295       15.1072193958       17.8613043793
 Hg        17.8947557750       14.6888705203        7.3601719317
 Hg        15.4588765055       18.4870986584        7.5931909913
 Hg        18.2235323663       11.5811620785        9.5970051911
 Hg        12.8743033633       19.9077507116       10.0992671321
 Hg        18.2130951025        9.1311220869       12.5186879210
 Hg        10.8015734322       20.6996376046       13.2837462733
 Hg        17.8576488547        7.3495476710       15.8827972726
 Hg         9.4455618703       20.6609845518       16.8571309570
 Hg        15.5031934090        8.3357290277       19.6166720790
 Hg        12.8162285872       10.9801421744       20.6665993701
 Hg        10.7915139813       14.2846130826       20.8796512102
 Hg         9.4391873701       17.7973171587       20.2546850423
 Hg        20.9559128728       14.3089457688        9.5068126625
 Hg        18.8872096407       17.9068046436        9.7946582893
 Hg        16.5226882758       21.2230440351        9.9352774818
 Hg        21.1852359269       11.9108089245       12.4049152176
 Hg        14.6057577853       22.1685261244       13.0405438761
 Hg        20.9042248449        9.4893747561       15.2954363412
 Hg        12.5141790589       22.6692153528       16.0993494750
 Hg        18.8653747995       10.3569392967       18.7280382522
 Hg        12.0468013933       20.8123469871       19.8870039060
 Hg        16.4330900409       11.0461703610       22.0233771464
 Hg        14.5770502715       14.2851213025       22.3601610063
 Hg        12.5089573376       17.3908012503       22.3649781752
 Hg        22.1669280486       17.6122301334       12.2815861465
 Hg        20.1940469911       20.7991567526       12.5359240697
 Hg        22.3276601579       15.0618890005       15.0488488069
 Hg        20.9633919019       18.8268985937       15.7512777115
 Hg        18.0775702740       21.7460117079       15.5263836681
 Hg        22.2100704901       12.7944298661       18.0458199357
 Hg        20.9535408048       16.3793215260       18.6738206389
 Hg        18.7458417750       19.6386340086       18.9097085685
 Hg        15.9328814015       22.1811998729       18.6453897909
 Hg        20.1328479736       13.4786147846       21.1030663056
 Hg        18.0710489448       16.6457701995       21.5719777023
 Hg        15.9321317599       19.8166351141       21.4539045634
 Cl        12.4595092333       22.5788119520       21.3732064174
 Cl        16.1675797537       23.3106311423       11.2562879304
 Cl        10.4661170950       15.1000490027        6.9121284485
 Cl        16.1564274113       12.7303586373       23.8171347248
 Cl         7.5861985722        9.5868940648       10.4011052477
 Cl        23.8539706377       13.2613363145       16.2420854359
 Cl         7.2357962332       17.0669711292       19.3248089443
 Cl        17.1859147450       23.6692506904       16.9946221801
 Cl        13.8446120177        6.6690718396       18.7272643350
 Cl        17.1612430661       18.4261086437       23.2030989543
 Cl        13.8607973347       24.1426854758       14.5706669281
 Cl        12.6400144810       11.5840781189        6.7867727125
 Cl        10.4384683421        7.0723045314       16.4361566891
 Cl         6.0921945299       14.0114437040       16.7463879385
 Cl        19.3953119109       14.8954164851       23.0226666352
 Cl        22.7382458124       10.3302332891       13.7911021119
 Cl        15.9380348794        5.8736416650       15.4572453156
 Cl        22.7776850216       13.0280257466       10.6350360343
 Cl        19.3942522442       22.9149962583       13.5451334873
 Cl         6.0982160724       16.5847446081       13.6837031520
 Cl        12.6210994933        6.3460156377       12.9930131810
 Cl        13.9001947918       17.2308054410        6.1187624229
 Cl        16.0269315403       13.8716805489        5.9340546144
 Cl        23.8551373492       15.9573615954       13.1082774791
 Cl        13.8408264963       16.1124453101       24.0699076296
 Cl         7.2415122965       19.6375928770       16.2601206065
  S        13.8628140003       11.7847919336       12.2819846349
  S        11.4805069489       15.5811413413       12.4956357112
  S        11.4604412050       12.6612202782       15.9698221683
  S        17.2701552097       14.0271890108       11.4406532282
  S        14.8924359102       17.8147473161       11.6836343953
  S        17.2744439890       11.3452016762       14.6188571490
  S        14.9698944481       14.9869464092       14.9784966523
  S        12.6173486866       18.6166206375       15.0723764898
  S        14.8746295429       12.2069627986       18.3059186421
  S        12.6118863403       15.6960156162       18.5376312958
  S        18.5289490365       17.3372233248       14.2592260829
  S        18.5204466206       14.6605307124       17.4362036717
  S        16.2664038147       18.1466738375       17.6475228030
  S        12.6488684479        8.5994409182        9.5966659882
  S        10.3649613099       12.3970109913       10.1411517143
  S         7.9370897230       16.0566453187        9.9937260526
  S        10.3422098796        9.7958232971       13.2400976861
  S         8.1904276427       13.1123603393       13.3653956924
  S         7.9001523731       10.2947440995       16.8504855314
  S        16.1178163577       10.8240465217        8.6251946243
  S        13.8008351347       14.6169691399        9.2622837809
  S        11.3117872641       18.3739678782        9.0202796611
  S        16.1112906953        8.0154002758       11.9765937915
  S         8.9312790789       19.2331897678       12.6382669487
  S        13.7704514819        9.3064884910       15.5896062064
  S         9.4282937995       16.2163870815       15.9939195140
  S        11.2460743611        9.6915595923       19.3194541161
  S         8.9096905170       13.4308287233       19.5423436785
  S        19.6176098443       13.1179639734        7.9173317513
  S        17.2183814942       16.8798648176        8.3187690124
  S        14.7974649896       20.6471692936        8.3782200713
  S        19.7682206882       10.3749723398       11.0838463637
  S        12.5328464072       21.6368018576       11.7857469734
  S        19.6225253923        7.7186517375       14.3162417767
  S        10.2637706361       22.2845052684       15.2760922925
  S        17.2230463680        8.7289210926       17.9065816074
  S        10.5371602852       19.3457953996       18.6532038328
  S        14.7498639118        9.3955989330       21.6326106118
  S        12.5066203614       12.9539159289       22.0706712945
  S        10.2584895079       16.5139750702       22.1187945334
  S        20.6438102696       16.4408246175       10.7309484483
  S        18.4092994981       20.0006199461       10.9776874158
  S        20.5199919262       13.7584642592       13.9483201405
  S        16.0914313823       20.6959573586       14.4059406287
  S        20.6402235850       11.0671048343       17.1609865021
  S        13.7713708061       21.4599942998       17.7979634249
  S        18.3429421215       11.8427527263       20.6088785530
  S        16.0787299135       15.3784165669       20.7009589828
  S        13.7663072910       18.8622128411       20.8879257982
  S        22.0912809466       19.6834204285       13.4803691978
  S        22.2466265587       16.9350181941       16.6567578072
  S        19.8158494524       20.6438404904       16.9056274820
  S        22.0568685567       14.2789265685       19.9136995270
  S        19.8014470434       17.8356402968       20.2510694198
  S        17.4397132905       21.3468548543       20.3442278421
