     149
 i =       47, E =     -5132.9407113532
 Zn        11.3663044005       12.5994896466       10.1026528950
 Zn        11.3658872151        9.9446718096       13.2251458465
 Zn         9.1690373519       13.4167249931       13.4727341539
 Zn        14.7795125099       14.8523999206        9.2616353551
 Zn        14.8461466149       12.1166812433       12.3701865065
 Zn        12.5127979963       15.7715411784       12.6113210474
 Zn        14.7712777672        9.4889905829       15.6102260457
 Zn        12.5098192810       12.9477785131       15.9374040297
 Zn        10.3281050812       16.4915427742       16.0957938134
 Zn        18.2070821889       14.4125294428       11.6558555665
 Zn        15.9474969717       17.9584502971       11.8961269501
 Zn        18.2060494394       11.7525376126       14.7887166854
 Zn        16.0371075188       15.3088526071       15.0856560835
 Zn        13.6863140610       18.7483412137       15.3137548198
 Zn        15.9401078208       12.5982580090       18.2185310109
 Zn        13.6856334780       16.0944771889       18.4425391264
 Zn        10.8169753725        9.7164694930        7.6836736772
 Zn         8.3839087426       13.5285100505        7.9339362849
 Zn        10.8156306047        7.0785992707       10.7523524732
 Zn         7.6396682540       10.1818378409       10.7317506821
 Zn         6.2023388685       14.3116520234       11.2699462455
 Zn         8.3872075676        7.9408100267       14.4711909875
 Zn         6.2035248039       11.3568013447       14.7079958097
 Zn        13.7637061583       11.6466175543        6.7079976614
 Zn        11.2886173883       15.4790950106        6.9843138920
 Zn        13.8516098689        8.7977441828        9.5683743665
 Zn         8.9337888183       16.4754031118       10.1025166628
 Zn        13.7628366491        6.4563562263       12.8360566847
 Zn         6.9715117568       17.0331545883       13.5861364899
 Zn        11.2838107974        7.3231594523       16.5753875790
 Zn         8.9368519635       10.5731528877       17.0340322470
 Zn         6.9420348117       14.0797350313       17.0343910607
 Zn        16.8153531050       13.5576584228        6.2322755526
 Zn        14.2940642853       17.4978433773        6.5160969838
 Zn        17.1868443585       10.9689331069        8.7897060484
 Zn        12.2191304344       18.6674910414        9.3139259870
 Zn        17.1816107772        8.3940262958       11.8797396859
 Zn        10.0432633217       19.4545948246       12.6196999949
 Zn        16.8029387763        6.3028281466       14.8584062354
 Zn         8.1813733997       19.6708644499       15.7940511889
 Zn        14.2513285062        7.2240609937       18.6730244795
 Zn        12.2123193016       10.1724524489       19.3613804860
 Zn        10.0342852525       13.5538274948       19.5915748706
 Zn         8.1769649434       16.7244473428       19.2327448059
 Zn        20.1313689541       13.1528618725        8.5402521418
 Zn        17.9841542523       16.9595576250        8.7310946160
 Zn        15.4036254353       20.4622037775        9.0217589456
 Zn        20.3783456132       10.8027933341       11.2823874509
 Zn        13.5315734188       21.4014275162       11.9978050638
 Zn        20.1308396544        8.4779131751       14.0773129554
 Zn        11.5149823915       21.8605373888       15.0103508818
 Zn        17.9708435652        9.3235784226       17.7998946048
 Zn        11.2835350815       19.8432689196       18.9168034599
 Zn        15.3911269607       10.1837123966       21.2154555865
 Zn        13.5221731186       13.2884959018       21.6199248498
 Zn        11.5043554207       16.3269275757       21.5491018763
 Zn        21.3940421742       16.5755350716       11.4350478651
 Zn        19.2158689933       19.9809697576       11.6641628431
 Zn        21.6262692824       14.1597761597       14.1454985437
 Zn        19.6948426602       17.7026963534       14.4842874511
 Zn        17.2646121893       20.9246662574       14.6059368611
 Zn        21.3916855886       11.9008204377       16.9699932236
 Zn        19.6894832974       15.0969772105       17.5704232242
 Zn        17.5058168318       18.5040566612       17.8102809171
 Zn        15.2296931791       21.3883716746       17.5867884659
 Zn        19.2149476341       12.6842653907       20.2916035488
 Zn        17.2630549221       15.7270507208       20.7397072397
 Zn        15.2303942274       18.7560161278       20.6868126475
 Cl        10.5947049081       21.3941085968       20.2289633823
 Cl        15.0461067321       22.2453310074       10.3225912324
 Cl         9.5204313046       14.1860929940        6.0881313320
 Cl        15.0259542683       11.7667489259       22.7482481244
 Cl         5.9885045069        9.1339662402        9.8548582825
 Cl        22.8152609391       12.4445490606       15.3202711871
 Cl         6.2516375005       15.9265878148       18.3722224257
 Cl        16.3155318216       22.5853383556       15.9986235536
 Cl        12.7980613690        5.8249099098       17.7121915947
 Cl        16.3051579114       17.3854722711       22.1349559345
 Cl        12.8484812828       23.0220005189       13.5895993572
 Cl        11.8043951817       10.6321047076        5.8558675737
 Cl         9.5195442803        6.2324330422       15.4415658264
 Cl         5.1705361495       12.9814838570       15.8897936529
 Cl        18.4614369650       14.0094259946       21.9284692504
 Cl        21.6727814081        9.3764929336       12.7160579261
 Cl        15.0715750824        5.0168686771       14.2736702906
 Cl        21.6827903093       11.9657766851        9.6450868065
 Cl        18.4614285955       21.8093815962       12.7012640779
 Cl         5.1811094894       15.7359603740       12.6874249290
 Cl        11.8076036815        5.4382997334       11.9664500468
 Cl        12.8115701703       16.3316487005        5.3126608846
 Cl        15.0786733951       12.8030063786        5.0491740215
 Cl        22.8125278098       15.0385242986       12.2542443556
 Cl        12.8290146439       15.1215776319       22.9448286738
 Cl         6.2616692496       18.6714004134       15.1645535283
 Te        12.8620799717       10.7967965806       11.2598382341
 Te        10.4419916191       14.5782721933       11.5117571829
 Te        10.4405300500       11.6656468853       14.9384512422
 Te        16.3490725606       13.1025482258       10.4066379111
 Te        13.9335138824       16.8827121090       10.6513798050
 Te        16.3352240588       10.3338101578       13.6921496202
 Te        13.9972689585       14.0270839941       13.9950619939
 Te        11.6095355722       17.6925059515       14.1576750750
 Te        13.9215426212       11.1990472205       17.3724438846
 Te        11.6098920418       14.7786534288       17.5936708442
 Te        17.5848394142       16.4012936337       13.2073935466
 Te        17.5829117887       13.6295516428       16.4781802201
 Te        15.2811000013       17.2213566576       16.7103953506
 Te        11.7397016771        7.5090853919        8.4569949021
 Te         9.2858274987       11.3401149113        8.9406841893
 Te         6.8137134222       15.1739598728        8.9899592707
 Te         9.2919396678        8.5917223037       12.1566621942
 Te         7.0203652490       12.1585845452       12.4095549215
 Te         6.8230974195        9.2524243637       15.9317341730
 Te        15.2344961413        9.7905199364        7.6061308172
 Te        12.7903483203       13.6383630317        8.1172731757
 Te        10.2722731444       17.4875670371        8.1226480597
 Te        15.2434072013        7.0337435725       10.8698429134
 Te         7.9610250553       18.3075025276       11.6320800516
 Te        12.7872724196        8.1589291135       14.5818059810
 Te         8.2308982560       15.2780296935       15.0738601591
 Te        10.2790042002        8.7946093773       18.3672569978
 Te         7.9632500531       12.3744555449       18.6055302320
 Te        18.7410563493       12.0634767204        6.7788232206
 Te        16.2915220537       15.9460289822        7.1361509002
 Te        13.7467139568       19.8029769057        7.2841804135
 Te        18.7469497416        9.3330122092       10.0448138446
 Te        11.4580603318       20.6299525185       10.7855779826
 Te        18.7246379400        6.5780830452       13.2868625623
 Te         9.1552908029       21.4253773691       14.2804345608
 Te        16.2710101477        7.5857129870       17.0580371324
 Te         9.3611458964       18.4310393050       17.7173214820
 Te        13.7302815355        8.3640147353       20.8269347171
 Te        11.4544078565       11.9492526521       21.0547560215
 Te         9.1443391758       15.5340493048       21.2284709554
 Te        19.8652825851       15.4931012060        9.6382727315
 Te        17.5055238768       19.1806030304        9.8755781606
 Te        19.7646958516       12.7479942190       12.9378736504
 Te        15.1522664188       19.8973939188       13.4267654297
 Te        19.8562951264        9.9545808804       16.1995184628
 Te        12.8367612483       20.7426641852       16.9119609387
 Te        17.4846096583       10.8145838643       19.7949891150
 Te        15.1478440665       14.4216005842       19.8932488248
 Te        12.8351487852       18.0085344833       20.1377708031
 Te        21.2640578215       18.8239582927       12.5035728445
 Te        21.2544445370       16.0652678603       15.7487155024
 Te        18.9547054239       19.6524433745       15.9876211850
 Te        21.2589374492       13.3274529393       19.0091349721
 Te        18.9450191262       16.8920394739       19.2512420827
 Te        16.6199466007       20.4594177191       19.4649021159
