     381
 i =       37, E =    -10795.1452902412
 Cd        16.5687306573       22.3713778899       16.5808045933
 Cd        19.5153382124       25.3436491749       16.5137753265
 Cd        22.4137630005       28.2478652369       16.3906274373
 Cd        17.0393336376       25.1264561860        8.0842285165
 Cd         7.7674696268       13.5585429515       16.3863427580
 Cd        10.6825735884       16.4755503187       16.4999043821
 Cd        13.6326517589       19.4163127997       16.5868415678
 Cd        19.4232859516       22.3771025119       19.4204019989
 Cd        22.3785286911       25.2624939345       19.3197629774
 Cd        25.1232497653       27.9274003432       19.0135216325
 Cd        13.4279389586       10.4771250572       13.4250405534
 Cd         8.0940409134       10.8527477240       18.9656759210
 Cd        10.7900724251       13.6655763539       19.2907630410
 Cd        13.6516344356       16.5607679776       19.4395148498
 Cd        16.5154375202       19.4889335623       19.4906700802
 Cd        22.3092090084       22.3151451593       22.2373963349
 Cd        25.4388165753       25.4544900828       22.4644291848
 Cd        16.4126394335       13.5200040556       13.5413483695
 Cd        10.4970641285       16.1380042380       10.5286808987
 Cd        11.0345000522       10.9654928931       22.0941625928
 Cd        13.7720391318       13.6865433008       22.3132880583
 Cd        16.5935619302       16.5731859215       22.3668271198
 Cd        19.4378779233       19.4376789533       22.3528175129
 Cd        25.0254138416       22.0822600161       24.9742821615
 Cd        19.5314136235       10.6594545356       19.5129030878
 Cd        13.5758960230       10.5515269673       25.4449276503
 Cd        16.7028314918       13.6156586773       25.2479958341
 Cd        19.5085540666       16.4781346610       25.3153182925
 Cd        22.3242964923       19.2816970872       25.2132261767
 Cd        22.4827885359       13.5334731397       19.5853926731
 Cd        28.2548935031       16.3771233494       22.3851381163
 Cd        22.3757303786       16.5825587290       16.5712844511
 Cd        22.1379518900        8.0049473689       13.9861064890
 Cd        22.4682221802       22.4797513230       16.4047391183
 Cd        19.6499107141       13.5789008304       28.2330005658
 Cd        22.4173913838       16.3743201672       28.2305766206
 Cd        25.1319095747       18.9557789477       27.9106907470
 Cd        19.4323435760       16.5684734487       13.6502499697
 Cd        19.3751726158       16.6155024885        7.7408776047
 Cd        10.9059814578        8.0615662345       18.9900700090
 Cd        13.5762065644       16.3386718311        7.7753647377
 Cd        22.0873584728       10.9737007844       11.0125630323
 Cd        16.5867432920       19.3758364315        7.7438021657
 Cd        27.9109811518       25.1654313194       19.0154936134
 Cd        22.6180852773       13.4186777488       25.5038837520
 Cd        28.2454294264       19.6825181101       13.5853611552
 Cd        14.0087073230        7.9994652139       22.1421134755
 Cd        13.5467792831       13.5178710256       16.4211595638
 Cd        25.5000147569       19.8601806636       10.5021618745
 Cd        25.3459414343       16.4858246323       19.4630300571
 Cd        16.5092363173       10.6550088203       16.5000734783
 Cd        17.0381036399        8.0832591459       25.1297445773
 Cd        19.8395862020       25.5071483863       10.5054303425
 Cd        19.4889917702       19.4956007008       16.5111676935
 Cd        16.6391665947        7.6965450824       19.4233335502
 Cd        19.8721275375       10.4939772021       25.5088308292
 Cd        10.9636988028       22.0789549422       11.0234535739
 Cd        13.9151039904       25.0246265071       11.0250900673
 Cd        17.0237961309       27.9272380723       10.8928063904
 Cd         8.0690630026       18.9572190377       10.8967682191
 Cd        13.6859890288       22.2999975357       13.7615605034
 Cd        16.7140990810       25.2714390268       13.6970892373
 Cd        19.6278986083       28.2520906107       13.6003938914
 Cd        16.1588961601       10.4883635562       10.5095794551
 Cd         7.7547933891       16.3284433434       13.5989159397
 Cd        10.7286078436       19.2720293092       13.6959860894
 Cd        16.4607847081       25.3394031523       19.4924235356
 Cd        19.3794133224       28.3036213138       19.3881379511
 Cd         7.7293875971       16.5880395548       19.4036766140
 Cd        10.6770224995       19.5124951013       19.4998140768
 Cd        13.5252542744       22.4664762757       19.5965172758
 Cd        19.2728505632       25.2743042303       22.3016948299
 Cd        22.1088868842       28.0019380890       22.0020649982
 Cd         8.0602674640       13.9362061069       22.0634087064
 Cd        10.7884016984       16.7157545666       22.3253786235
 Cd        13.5397267080       19.5870308665       22.4757550059
 Cd        16.4074143805       22.4782844741       22.4622506007
 Cd        22.0801180049       25.0332047133       24.9746480644
 Cd        22.3754543143       19.4349516032       19.4138215712
 Cd        22.0397311622       13.9697845773        8.0477078401
 Cd        22.3112137146       13.6953494282       13.7557161195
 Cd        19.4343158294       13.6282818010       16.5801940056
 Cd        11.0332482021       13.9110766834       25.0309711455
 Cd        13.7034619601       16.7118417739       25.2705426302
 Cd        16.4997660848       19.5102545491       25.3203640546
 Cd        19.2826210552       22.3275519550       25.2148531147
 Cd        25.4480405082       10.5600129478       13.5239477697
 Cd        14.0031579485       13.8604278259       27.9960367966
 Cd        16.6256981478       16.5825406838       28.2878551752
 Cd        19.3907591111       19.3814625623       28.2726924147
 Cd        22.0400415901       22.0455013999       27.9440281735
 Cd        22.4605962022        7.7660085722       19.6166778730
 Cd        22.3906627252       10.7537250043       16.6778421811
 Cd        25.5015958631       25.5291169856       16.1616456439
 Cd        13.7082832995       10.7232587429       19.2932035793
 Cd        10.4940611328       13.3742474859       13.4249692150
 Cd        25.0316387383       13.9240392198       11.0178813431
 Cd        27.9287267373       17.0456819489       10.8894806971
 Cd        22.3226795945       16.7217977164       10.7842368812
 Cd        18.9582256989       10.8725533958        8.0842364086
 Cd        25.1484063880        8.0906779634       16.9776830319
 Cd        25.5134874859       16.1634720186       25.4758032978
 Cd        25.5284947870       10.4978613930       19.8281882650
 Cd        22.4017964042       19.6313334172        7.7667605710
 Cd        25.3403742452       19.5463960695       16.4948447432
 Cd        25.2615503133       13.6213515671       16.6591782334
 Cd        19.5020869656       19.5086081525       10.6992131194
 Cd        28.2368610766       22.4726452210       16.3760338997
 Cd        19.6132379616       13.5300287553       22.4669588100
 Cd        16.5960543952       13.6237056395       19.4316760096
 Cd        28.3056783133       16.6242539000       16.5914844264
 Cd        10.5440923900       25.4316154266       13.5333408634
 Cd        13.8545537623       27.9922789237       13.9916042809
 Cd         7.9978738326       22.1018372986       13.9990618558
 Cd        13.6023905789       25.2423053176       16.6762373332
 Cd        16.5706189230       28.2985255524       16.6169270733
 Cd        19.5005082752       16.5168208960       19.4829984624
 Cd        22.4753075408       19.6008096559       13.5343036423
 Cd         7.7062251291       19.3770427382       16.6203882025
 Cd        10.7423926416       22.3688743024       16.6826103025
 Cd        16.3238226536       28.2470990860       22.4009572825
 Cd         7.7666756711       19.6216331656       22.4098296307
 Cd        10.4859332917       22.5785019748       22.5911939629
 Cd        13.3798323562       25.5094510285       22.5856564753
 Cd        18.9600951021       27.9332745503       25.0994080989
 Cd        28.0017056770       13.8927093907       13.9876705869
 Cd        16.7119862990       10.7435572253       22.3803205612
 Cd        19.2823550493       13.6750671899       10.7848006671
 Cd        16.5632986115       19.4277600231       13.6535480252
 Cd        19.6096023702       22.4016024244        7.7668820935
 Cd        25.1279194601       17.0524757347        8.0852376948
 Cd         8.0918357848       17.0451302639       25.1329748720
 Cd        10.5211316027       19.8424738719       25.5073441295
 Cd        13.4185480578       22.5958138374       25.5095640920
 Cd        16.1497618553       25.5083733367       25.4858783892
 Cd        13.3996805146       13.3788675449       10.4972027580
 Cd        16.5187090409       16.5051336442       16.5203343209
 Cd        10.9037530516       17.0230863701       27.9292093650
 Cd        13.6027567547       19.6404422939       28.2483049303
 Cd        16.3808058032       22.4162866975       28.2363576203
 Cd        16.7110642900       22.3208317986       10.7865855756
 Cd        22.5786041088       22.6003748237       10.4885941924
 Cd        19.5842791779       22.4795497368       13.5373103034
 Cd        13.6059031971        7.7375150765       16.3802114673
 Cd        25.2515185387       22.3984955160       19.3140253452
 Cd        22.6249893140       10.4945502277       22.5862289066
 Cd        25.5241816328       13.4255561763       22.5637008311
 Cd        16.3811203302        7.7419300719       13.5955916133
 Cd        22.4844731313       16.4177268156       22.4534172389
 Cd        22.5778871135       25.5193696968       13.4208718787
 Cd        25.2722823205       16.7330494874       13.6873854319
 Cd        16.3665878541       13.5819099511        7.7716511008
 Cd        19.6704191654        7.7644574458       22.4214139017
 Cd        19.4308743094        7.6988613644       16.6247394032
 Cd        10.8333213464       27.9061275227       16.9811539909
 Cd        25.2751077203       19.2865830994       22.2904663512
 Cd        27.9949927640       22.1438545435       22.0049914999
 Cd        19.2901155044       10.7275833773       13.6887238829
 Cd        28.2478243835       13.5899063014       19.5932961143
 Cd        13.5317666183       28.2353205542       19.6094888381
 Cd        10.8670783623       18.9403097411        8.0910791784
 Cd         7.7598209910       22.4074746282       19.6140875387
 Cd        10.4724906681       25.4964648102       19.8370909622
 Cd        13.5265936434       16.3952692533       13.5468455368
 Cd        13.9403586035       22.0438398276        8.0564750131
 Cd        25.5069319179       22.6281471817       13.3999363861
 Cd        27.9308662601       18.9779426715       25.0994244913
 Cd        13.6691424390       19.2729432253       10.7893576424
 Cd        28.3009812560       19.4300403643       19.3702676848
 Cd        16.4829791353       16.4816768593       10.7043451740
 Cd        18.9784920955        8.0704907467       10.8863472701
 Cd        10.5309760671       10.4815221780       16.1691728776
 Cd         8.0747240088       25.1162830423       16.9848580618
 Cd        17.0306616989       10.8685215439       27.9146057101
 Cd        18.9537797099       25.1370587437       27.9096696025
 Cd        27.9228973797       10.8741944162       16.9747147125
  S        17.9243454152       23.9782235386       23.9497086773
  S        20.9555255758        9.1438520150       17.9936175961
  S        20.9681585238       23.9640629901       15.0203235518
  S        21.0578643159        9.0424268473       23.9295946454
  S         9.1509451812       17.9927336708       20.9238058572
  S        26.8821972306       18.0473229038       15.0786887011
  S        26.8549225020       15.1203183766       12.1485602297
  S        18.0448523894       15.0280304791       20.9721859290
  S        15.0593621523       20.9251226415       12.1291628728
  S        15.0605140025       17.9738336290        9.1582830158
  S        23.9119442191       26.9781647157       14.9824272318
  S        12.1694156465       15.0995022695       26.8572680709
  S         9.0268535713       23.9069701129       21.0210040355
  S        12.1343665661       15.0569614995       20.9415801857
  S        23.9149479601       21.0190535572        9.0344941361
  S        20.8865417429       23.8972127818       26.8087216217
  S        23.9021741090       20.9168886590       20.8976941544
  S        15.0079218545       23.9577448235       20.9839449307
  S        17.9582716566       26.8828047423       20.9053109361
  S        14.9860246387       12.0583564779        9.0382945431
  S         9.1411707645       20.9136507531       17.9910592422
  S         9.0031396419       26.9575894933       18.1839902155
  S        20.9768235327       20.9905957436       12.0516871521
  S        20.9908681789       23.9253347144        9.0309987384
  S        18.0060205870       26.8843904740       15.1024869755
  S        17.9717119669       15.0168132645       15.0266043767
  S        15.0067256485       14.9978051010       12.0576702443
  S        18.0019643266       18.0027441582       17.9974726569
  S        12.0484235826       14.9922784960       15.0284870913
  S        21.0013846910       26.9728315880       12.0772532616
  S        20.9014755274        9.1464523159       12.1477248304
  S        15.0244272609       20.9869996076       23.9538486424
  S        20.9094270180       12.1014014112       15.0881990512
  S         9.0488766571       18.1840905894       26.9882964086
  S         9.1475648541       15.0540704740       18.0064398084
  S        15.0223546794       20.9710879800       18.0324197308
  S        17.9890260885       23.9168891703       18.0016119201
  S        23.9682199834       15.0371638681       20.9614657233
  S        23.9470901120       15.0058869308       26.9585089252
  S        15.1068571814        9.1056932156       17.9968139347
  S        17.9923073575       17.9955746699       12.1105335676
  S        23.9021540125       26.7755506683       20.8965078423
  S        14.9951992285        9.0216506172       12.0822944253
  S        20.9250882611       17.9969579722       26.8474885233
  S        12.0482361832       20.9680174684       20.9904894476
  S        26.7758629654       12.0936336930       15.0834384707
  S        26.9633925803       26.9963222281       17.8128253571
  S        23.8894733779       20.8900784275       26.8083964866
  S        23.9037023052       15.1048612366       15.0817937565
  S        17.9703533862       20.9831388646       20.9735538377
  S         9.2276762596       23.8917988432       15.1042739855
  S        23.8259899888       23.8322963114       23.7487417943
  S        15.0324240223       18.0263891677       20.9820470429
  S        12.0230806842       17.9103203908       12.0573951400
  S        18.0135548661       12.0820077034       18.0016620689
  S        17.8156941174        9.0156425769        9.0328369912
  S        12.0311491085       23.9473307227       18.1025975036
  S        23.9823089741       17.9401349513       23.9412650803
  S        15.0193849376       17.9586813455       15.0312460363
  S        18.0051703032       20.9285090723       26.8555671181
  S        15.0338714062       26.8599268926       17.9860177396
  S        20.9375146937       20.9413617857       23.8703710982
  S        20.8838087629       26.8565298972       23.8402114875
  S        17.9279654779       12.0216290044       12.0483915073
  S        18.0224356732       20.9808357976       15.0246148399
  S        12.1717156829        9.1391352746       20.9078368684
  S        12.0992788380       20.8764632692        9.1933774173
  S        18.1260395684       12.0423800882       23.9581010360
  S        23.9171631054       18.0171071864       17.9829035291
  S        12.0404528745       26.9613007125       21.0204829371
  S        26.8647019794       20.9676061857       17.9982960614
  S        18.0620085157       23.9762150354       12.0471946118
  S         9.0537870154        9.0015467455       17.8233970433
  S        15.1048347398       23.8866628191        9.1890079063
  S         9.0185442459       17.7900973082        9.0495262624
  S         9.0435685626       12.0417973468       15.0062949572
  S        26.9808854193       12.0889241399       20.9987662704
  S        23.9559815010       21.0001468994       15.0068242728
  S         9.1981632109       15.1067505011       23.8997652480
  S        26.9599025893       21.0489887572       12.0614622752
  S        20.9136108379       18.0067191019        9.1538815413
  S        17.9858553648       15.0743948507        9.1558085246
  S        15.1346904721       12.0848559652       26.7698658465
  S         9.0397783589       20.9944186358       23.9349336973
  S        15.1044525065       18.0177200596       26.8804324351
  S        15.1105483294       15.0942396725       23.9011196815
  S         9.1975164146       12.0940946247       20.8982536369
  S        12.0664131687       26.7586250314       15.0994226686
  S        18.0234127932        9.1384456531       20.9376722917
  S        15.1405297381        9.2286852195       23.9157933284
  S         9.1434786033       20.8784474668       12.1588249875
  S        12.0692715217       23.9117365638       23.9267724273
  S        23.9472776257       12.0984364978       23.9093795048
  S        12.0984507104       17.9786392187       18.0126613511
  S        12.0775212628       12.0454776014       12.0866213847
  S        23.9723744412       18.0835162035       12.0419307005
  S        14.9957341121       23.9317379753       26.9636529370
  S        26.8847318126       17.9939402990       20.8793110687
  S        12.2683435685       12.1687763712       23.8333329516
  S        23.9031830580       23.9411532142       12.0675856332
  S        26.9909668785       17.8212135907       26.9565369210
  S        20.9777463284       18.0373113299       15.0203970701
  S        21.0012168700       12.0491503818       20.9768786455
  S        18.0022253417        9.1078845595       15.0924927308
  S        12.0936063657        9.0150443787       14.9927911663
  S        12.0871491390       21.0212193771       26.9711856939
  S        23.9606831071        9.0390982146       21.0170757813
  S        21.0044829992       15.0300483598       23.9437108928
  S        15.0862207539       23.8966488527       15.0918242718
  S        20.9848778408       17.9815751198       20.9666918960
  S        23.9200411877        9.2411202699       15.0958323464
  S        18.0123130321       15.0640574397       26.8529797454
  S        15.0285488472       12.0305693252       15.0278041408
  S         9.0357476557       14.9465243503       12.0881133601
  S        20.9009490800       23.9069925399       20.9041264974
  S        23.8262002968       12.1812798424       12.2420698338
  S        20.9722119672       20.9834285791       17.9659432312
  S        18.1778135915       26.9843739744        9.0331411687
  S        12.0612083938       12.0144568695       17.9380222738
  S        23.9525700924       23.9718095880       17.8938013035
  S        20.9828093851       15.0317177107       18.0209986208
  S         9.1218882655       17.9572929613       15.0953084864
  S        12.0980211685       20.8905287200       15.0983234484
  S        20.9310618274       15.0694505309       12.1258371374
  S        26.8536981493       20.9021350844       23.8344853778
  S        26.8728595886       15.0749818287       17.9560421949
  S        23.9719574536       12.0504573591       18.0880839842
  S        18.2234200130        9.0285692891       26.9738475636
  S        20.9250287116       26.8712705968       18.0194161205
  S        18.0159490084       18.0118847407       23.9014123830
  S        26.9887205912        9.0328288316       18.1697414577
  S        26.9807210363       14.9989014908       23.9058575125
  S        26.9604629839       23.9630812631       14.9659211901
  S        12.0573580591       18.0660374490       23.9796835580
  S        26.7634583471       23.9307155253       20.8931873417
  S        17.9887991294       20.9114104977        9.1537271722
  S        17.8053113535       26.9892061753       26.9574780495
  S        14.9564814400       26.9641254825       23.9244500907
  S        12.1701034828       23.8181861374       12.2504313697
  S        15.0969625959       26.8535940414       12.1578443765
  S        15.1111832865       12.0946337088       20.9115368211
  S        21.0522098745       12.0816597484       26.9604115991
  S        23.8886995730       15.1199322125        9.1863552229
  S        20.8878427995       12.1164970490        9.1836583693
  S        26.9801864769       18.2018209406        9.0326081508
  S        12.0595436371       14.9613966092        9.0504093423
  S        15.0344795750       15.0130870018       17.9775265987
 Cl        23.6791121978       17.8641503203        6.3315479203
 Cl        29.7512506700       15.2150415642       20.7600442172
 Cl        20.8194822414        6.2751200449       20.7761452304
 Cl        23.6912514955       18.1472201271       29.6689609255
 Cl        18.1135986247        6.3023140165       12.2854443881
 Cl        29.8011282718       18.0285859430       17.9801352597
 Cl         6.3246703198       23.6800901493       17.8627372565
 Cl        12.2523672395       29.6673836774       17.8584292984
 Cl        15.2078268009        6.2294644840       15.1981145675
 Cl        29.6855382907       17.9329123552       12.2881612057
 Cl        11.7851888686        9.4493822249       26.5352491831
 Cl         6.3328574051       17.8489013877       23.6910654562
 Cl        20.8589856239       29.7509420939       20.9185294551
 Cl        15.0952815603       29.7443707912       15.0793485030
 Cl        17.9009367445       12.3006351918       29.6692091050
 Cl        15.0983512622        6.2518128029       20.8930076474
 Cl        18.1437646184       23.7006881165       29.6720447241
 Cl        18.0047712288       18.0009402335       29.7857874994
 Cl         6.2531417215       15.1645618224       15.2213696997
 Cl        12.3018922138       18.1080966318        6.3373771882
 Cl        23.6947491376       29.6830308438       18.1366113988
 Cl        17.9796093908       17.9952610737        6.2310790646
 Cl        17.8431295647       23.6776578225        6.3284916475
 Cl        29.7413269834       20.8491431735       15.2035239192
 Cl        17.9740389679       29.8004555847       18.0003486020
 Cl        26.5218305600        9.4550995086       11.7260049092
 Cl         6.2669248973       20.7675254454       20.7815598256
 Cl        29.6787916044       12.3067947157       17.8404480152
 Cl        18.0144651640        6.2020977264       18.0013949605
 Cl         6.2542936365       20.8466045265       15.0864922011
 Cl        17.9145125374        6.3302699435       23.7021133233
 Cl        20.8962592952       20.9006293424       29.7179789489
 Cl        15.2232179965       20.8061760520       29.7512358870
 Cl        23.7260029390        6.3322887108       17.8550372099
 Cl        18.1319048902       12.3120411599        6.3298936240
 Cl         6.2154242258       17.9645923031       18.0103600440
 Cl        18.0748972934       29.6868377356       23.6933731137
 Cl         6.3144224383       18.0719699150       12.3032488888
 Cl         6.3287694014       12.2822496110       18.1505077792
 Cl        15.1560046326       29.7397343211       20.7776547829
 Cl        15.2055576257       15.2012379944        6.2657187595
 Cl        17.8818204520       29.6911574567       12.2995465055
 Cl        26.5329625612       26.5790190298       24.2367617355
 Cl        20.7900266145       29.7516170847       15.2184466980
 Cl        29.7538700059       15.1461893058       15.0588202814
 Cl        29.6916578134       18.1247747456       23.6836986215
 Cl        29.7444718582       20.9065779048       20.9063836977
 Cl        29.6701990277       23.7502672878       18.1244284302
 Cl        15.0930068108       15.1151286223       29.7402277307
 Cl        15.0810172285       20.8818466829        6.2899205257
 Cl        12.3088389857       17.8985271150       29.6894846052
 Cl        20.7961214662       15.2228058469       29.7336244106
 Cl         6.2850267384       15.0745391640       20.9130618611
 Cl        12.3069250648        6.2968596883       18.1178489600
 Cl        20.8811722107       15.1134348216        6.2821016707
 Cl        20.8919920554        6.2548219505       15.0722777044
 Cl        20.7663781990       20.7761540617        6.2644360939
 Cl         9.4096271689       26.4923467191       11.7466928034
