      51
 i =       29, E =      -506.8521409459
 Cl         9.1347395786        9.0610705937        9.0260890997
 Pb        15.2831472544       15.4020762729       12.0356792933
 Pb         8.7843213231       11.7835820935       15.4591868479
 Pb        15.5642870643        8.9800604219       11.8614024580
 Pb         8.4351071688       15.0197489709       12.1380974548
 Cl         8.9010370717       14.8894944915        9.2190274780
 Te        15.2698971495       12.0453988561       11.9481956529
 Cl        14.9168957026       11.9058762417       18.1284728895
 Pb        12.2300315870       18.4085140161       12.1348802293
 Pb        12.1851712213        8.5068528510       15.1805197400
 Te        11.8653437737       12.0823006566        8.7328324555
 Cl        14.9672505968        9.2504610740        8.9476617860
 Pb        15.2099779038       12.0316063867       15.3976530166
 Cl         9.0321537332       14.7492698351       15.0522411556
 Cl        11.7811801685       18.2257597542        9.3386996592
 Cl        18.0416175697       15.0634258756       11.9144739141
 Cl         9.0827142583       12.0939726595        5.8713219697
 Cl        15.0985176034        9.1104670031       14.7808557125
 Pb        15.2152466282       12.2163774625        8.5406879690
 Cl         5.9578863580        8.9362904840       12.0870017611
 Cl        12.2197900276        5.7740976919       14.6610618450
 Pb         5.6171467008       11.7114491644       12.5727531035
 Cl        14.7218386928       12.3403633417        5.8059853387
 Cl        12.1974452050        8.7030052796       18.0397220775
 Cl        18.0690642805       12.3447661535        8.7699643871
 Cl         9.2778021817       11.6598218770       18.1938775558
 Cl         5.9304198051       11.6564996311       15.2300762318
 Te         8.7295612886       11.9544144608       12.0516379991
 Te        11.8764649718       15.2636756210       12.1688261128
 Pb        11.9065498100       12.6444514398        5.6183915827
 Pb         8.7895715852       11.9682772379        8.6021251879
 Cl         5.7232755974       14.5750077443       12.2128815078
 Cl        11.8022200024       15.2968474230        5.9600844424
 Te        12.1229649567        8.7361346968       11.8310012559
 Cl        14.7352236399       15.0807638463        9.1389610070
 Cl        12.1472483727        5.9032679894        9.0188109862
 Cl        11.8508757868       18.0965273002       14.9810250341
 Pb        11.7694474486        5.5912807208       11.8651314404
 Cl         9.2643278698        8.9189811405       14.8608327146
 Pb        11.9997226354       11.9999126769       11.9999155144
 Pb        18.3823212931       12.2884908047       11.4272673305
 Cl        14.8646833950       14.9388906422       14.9736973808
 Pb        11.8146756598       15.4929946692        8.8192945300
 Cl        18.2761106268        9.4247921328       11.7857127865
 Te        12.1342058250       11.9175382726       15.2670081311
 Pb        12.0930945567       11.3554103041       18.3814399990
 Pb        12.0790845456        8.6390180356        8.7522084174
 Pb         8.7163221265        8.5977187778       11.9646168670
 Pb        11.9200082346       15.3608127027       15.2476249001
 Cl         9.0985712933        5.7578953182       11.9110032416
 Cl        14.9009250786       18.2418921134       12.0904735923
