     381
 i =       56, E =     -9606.9971021424
 Hg        17.0599074805       22.9157630157       16.9595909889
 Hg        20.1079790811       25.9177889674       16.8484140471
 Hg        23.0584008163       28.6273671454       16.8652223508
 Hg        18.5290544001       26.2956407421        7.9394725316
 Hg         8.7680371970       14.1003834979       16.7536021590
 Hg        11.2771244771       17.0210897867       16.7494411790
 Hg        14.1906992140       19.9410923138       16.9435703636
 Hg        20.0032737540       22.9061110049       19.8799825670
 Hg        23.0226459340       25.6871314073       19.8374773501
 Hg        26.2459785867       27.8252838086       19.5350585748
 Hg        14.0013149652       10.8513149050       13.7906652760
 Hg         8.1151758807       10.6371758406       18.4549766073
 Hg        11.2138165081       13.9369294709       19.7832422619
 Hg        14.0847024447       16.9186450797       19.9490395956
 Hg        17.0406849822       19.9952438258       19.9050300173
 Hg        22.9657742505       22.9883004186       22.8788821152
 Hg        27.2817007573       25.8087322233       23.0849704996
 Hg        16.9590216194       13.9549206495       13.8150758576
 Hg        11.1263602630       16.5242769641       11.0923520052
 Hg        11.1962284604       11.9419222869       22.7984373196
 Hg        14.1051282259       14.0700411518       22.8831655566
 Hg        17.0854703043       17.0375283309       22.7737526983
 Hg        20.1071908208       20.0584610639       22.8876072739
 Hg        25.0785020539       22.8980997683       25.7930599318
 Hg        20.0895838630       11.1722362829       19.9472235582
 Hg        13.9414156369        9.8123000897       25.7791903058
 Hg        17.1479158969       14.0177614250       25.5576931372
 Hg        20.0576862512       16.9345031414       25.7461207447
 Hg        23.0948696780       19.8542291218       25.7625049915
 Hg        23.2032049788       13.9040287175       19.9966394834
 Hg        28.8089296880       16.9970974566       22.9772793801
 Hg        22.9543753834       16.9966356772       16.9626528789
 Hg        23.3183326559        7.8241767659       15.7400041350
 Hg        23.1999629091       23.0792745444       16.8681116593
 Hg        20.1051075365       14.0126592477       28.4961699976
 Hg        22.9096267497       16.8620688748       28.2786195515
 Hg        26.3715772113       18.5659928680       28.9025489911
 Hg        20.1537214685       16.9482507624       14.0033985648
 Hg        19.9694951620       17.0193587685        7.8704224020
 Hg        11.2209406236        8.7971928676       19.5836288934
 Hg        14.2346998160       16.7594211902        8.5456952674
 Hg        22.6580390240       11.3611605725       11.2860944352
 Hg        17.0846740310       19.8652820482        7.8783257605
 Hg        29.2915406668       26.1740213301       18.3198855878
 Hg        23.3595452402       13.7681801279       26.1162138503
 Hg        28.7911108414       20.0212517599       13.8730435777
 Hg        14.3735880528        8.3974130044       22.3332831974
 Hg        13.9432802758       13.9373808403       16.8329721894
 Hg        26.3814315319       20.9810928196       10.7147167250
 Hg        25.8995626876       16.9828176740       19.9676941401
 Hg        17.0306928652       11.0718979601       16.8174517800
 Hg        18.7390958533        7.7786026600       26.1075815874
 Hg        20.9908656571       26.2863608594       10.7328008847
 Hg        20.0733093332       20.0052334908       16.8501350087
 Hg        17.1291513987        8.0730511044       19.7827713968
 Hg        21.1655304739       10.7905956468       26.1779125892
 Hg        11.4420606956       22.5737021894       11.2704819659
 Hg        14.1872977201       25.0177001259       11.0082183360
 Hg        17.4120744582       28.1618119338       11.0547615167
 Hg         8.9611894953       19.7479892235       10.9689141068
 Hg        14.0781780165       22.9148782314       13.9429008659
 Hg        17.1921449653       25.7682255508       13.9359942973
 Hg        20.1295981184       28.7741219255       13.8727767471
 Hg        16.5726159077       10.9837216498       11.0108974096
 Hg         8.0446800935       16.7252589862       13.6822691772
 Hg        10.8966378722       19.9721723908       13.9373346547
 Hg        17.0582458182       25.8164869140       19.9791624589
 Hg        19.7529595907       28.7628871826       19.7967012681
 Hg         8.0241179381       16.9712191302       19.8897732182
 Hg        11.2754662231       20.0220294599       19.9218779789
 Hg        13.9003885101       23.1061815431       20.0345423925
 Hg        20.0157804393       26.1564610747       22.8679505510
 Hg        23.2763433459       29.1954344566       21.0890849900
 Hg         8.7265864360       14.2839109972       22.6321316870
 Hg        11.0642459026       17.1282751508       23.0549403843
 Hg        14.0262614406       20.1746636170       22.9364421134
 Hg        16.9312886341       23.0311977767       22.9714073418
 Hg        22.6343353796       25.6376534725       25.5210426708
 Hg        22.9396259737       19.9972932910       19.8894759099
 Hg        22.7565687217       14.3183157740        8.5422679066
 Hg        23.0046739496       14.0018101699       13.9519751987
 Hg        20.0094566034       14.0786718030       16.9434952972
 Hg        11.4576151302       14.3946309070       25.5317189992
 Hg        14.1161023158       16.9948597621       26.0862014952
 Hg        16.9128163907       19.9541056440       25.6376667359
 Hg        19.9301383174       23.1463728531       25.9120447914
 Hg        27.3045922988       11.2006311270       13.7574229925
 Hg        15.9204449292       13.7839893052       29.0977986056
 Hg        17.1999318707       17.3414248558       28.6756967986
 Hg        19.9749484418       20.0661889319       28.9594934523
 Hg        22.7548732150       22.7162676222       28.2592030612
 Hg        23.0989550734        8.4471702026       19.9359587228
 Hg        23.0381270850       11.3335794338       16.9979785914
 Hg        26.2804708527       26.2486492126       15.8942611936
 Hg        14.1036738421       11.2070484588       19.8004860957
 Hg        10.7871837015       13.6266106627       13.5082177803
 Hg        25.0939468765       14.1050173221       11.0143488722
 Hg        28.1989347371       17.3464019589       11.0473150385
 Hg        23.1245626199       17.1248346390       11.0899288692
 Hg        18.6428748786       10.7355343904        7.9569266931
 Hg        26.2743715338        9.2044843869       17.3144838615
 Hg        26.3452496268       16.1284585602       26.1025524211
 Hg        26.3249264523       10.7712296972       20.9784248079
 Hg        22.9638073087       20.1433526793        8.5952580527
 Hg        25.8958009901       20.0202588821       16.8850876627
 Hg        25.9148513424       13.7983194087       16.8460926948
 Hg        20.1093760911       20.0321360049       11.1330652395
 Hg        28.4072156067       22.8333116896       16.7822949711
 Hg        20.1928621746       13.8593613055       23.0183124898
 Hg        17.1009055624       14.0785952021       19.8940087671
 Hg        28.9664531643       17.1472639225       17.0300167547
 Hg        11.1902714945       27.1616399114       13.7515751175
 Hg        14.6336771414       28.5617946693       14.1845748488
 Hg         7.8685157582       23.2085269679       15.7580672451
 Hg        13.8740848722       25.8008198310       16.8574822956
 Hg        17.1432682955       28.9181171538       16.9821609797
 Hg        20.0950188798       16.9868641031       19.9708678589
 Hg        23.1749782192       20.1447360248       13.7906719892
 Hg         8.2870416925       19.6724675312       17.0672053432
 Hg        11.3998640715       22.9548863018       16.9635595826
 Hg        16.8020646129       29.0211716125       23.1683369859
 Hg         8.6047247243       20.2070832313       22.7279019630
 Hg        10.7572387001       23.2368898781       23.3667549299
 Hg        13.8933969308       26.1559688739       23.1627656437
 Hg        19.8340157126       28.1193084897       25.8311579185
 Hg        28.7106143881       14.6855849296       14.1992581340
 Hg        17.0384172894       11.1724147275       23.0943463252
 Hg        19.9843970228       13.8435624939       10.9443288504
 Hg        17.0089453087       20.0686060331       13.9933945636
 Hg        20.2106217895       22.8701084979        8.5805547159
 Hg        26.3862814187       18.4793789997        7.9372029639
 Hg         8.1246221617       18.4451228820       26.2149803414
 Hg        11.2825332069       20.3935679307       25.8436861364
 Hg        13.6905306262       23.4380075050       26.2513802733
 Hg        16.6158281757       25.9658521696       25.7739765794
 Hg        13.6123627876       13.5356934327       10.5751282797
 Hg        17.0611583103       16.9925515513       16.9099369563
 Hg        11.1497704208       17.1888511940       28.0283585953
 Hg        13.7779877649       20.2625354628       28.9174345478
 Hg        16.8197159163       22.8157571790       28.2997618194
 Hg        17.1964394276       23.0333062733       11.0795848734
 Hg        23.4162438700       23.3645780471       10.6832190179
 Hg        20.1899410965       23.0828081459       13.8072203714
 Hg        14.0154945282        8.2051434519       16.8693009673
 Hg        25.8895748274       23.2047272061       20.0054367949
 Hg        23.3332503718       10.8427198239       23.1335139381
 Hg        26.2425179492       13.8197967209       23.1806735272
 Hg        16.8215113868        7.9393098820       13.6715540925
 Hg        23.1450621294       16.8814039928       23.0304171444
 Hg        23.2037704835       26.1247599063       13.7733099658
 Hg        25.8048588155       17.1079950198       13.9549443168
 Hg        16.8943702773       14.1571928790        8.5853210437
 Hg        20.2338848878        8.6504765744       22.7498985605
 Hg        19.7875045113        8.2219665807       17.0282189006
 Hg        10.8528608757       29.2104429062       18.5612906387
 Hg        25.8131507592       19.8976962008       22.8863736136
 Hg        28.7110410229       22.3397317427       22.6172819711
 Hg        20.0308869686       10.8605798394       13.9332786970
 Hg        28.4297380439       14.1929840971       20.0701792086
 Hg        14.1978926907       28.3007549429       20.0312638304
 Hg        10.8107348851       18.5040553027        7.9571616608
 Hg         8.5374973812       22.9946823247       19.9477680549
 Hg        10.8075618717       26.1925713239       21.0486187682
 Hg        14.0224588981       16.7937403355       13.8569309719
 Hg        14.3895152106       22.6568163488        8.5408071803
 Hg        26.2332575231       23.2143664952       13.6682034635
 Hg        28.2019793846       19.6970873142       25.7914968061
 Hg        13.9100428207       19.8755608929       10.9327482832
 Hg        28.9623106264       19.8634109435       19.8032964298
 Hg        17.0743935282       17.0092889344       11.2738962957
 Hg        19.8454509950        8.8733256889       10.9899177054
 Hg        10.9161994478       10.7072812238       15.9809343729
 Hg         9.2350154471       26.1703005749       17.3393576473
 Hg        17.5093269011       10.8184352378       27.7454765040
 Hg        18.6178253745       26.2798343232       28.8690107457
 Hg        29.3179515398       10.8522478619       18.5356624586
  S        18.4721184569       24.6305245927       24.4222110236
  S        21.5230864759        9.6139827760       18.3389546172
  S        21.6799200972       24.5672269954       15.3469689055
  S        21.8481442861        9.1208818161       24.5474574835
  S         9.6518617506       18.4262723569       21.3116324784
  S        27.4568385444       18.4772269737       15.4538505249
  S        27.3311828710       15.4527879347       12.3173690758
  S        18.6409626166       15.4260159495       21.4818172149
  S        15.5322659835       21.4759957704       12.3554362705
  S        15.6763276946       18.5318295713        9.5516882504
  S        24.6512368928       27.8545750760       15.1280066966
  S        12.6565186250       15.3728335598       27.5242513372
  S         9.1698745704       24.5679707255       21.7584658994
  S        12.4982371578       15.4953654517       21.4518978241
  S        24.7513890059       21.7552520720        9.0550280341
  S        21.4452246262       24.6424687865       27.4910391759
  S        24.4976239726       21.5265526433       21.3967647379
  S        15.4253134328       24.5897471491       21.5120014528
  S        18.3786289615       27.5064266916       21.4526148172
  S        15.4337754667       12.3012574402        9.1711981246
  S         9.6773173296       21.4302848500       18.3244111551
  S         9.0240408754       27.8255230331       19.0481083005
  S        21.7171184136       21.6508607687       12.2697631197
  S        21.7996252654       24.6732575261        9.0603385885
  S        18.5377602850       27.4261694492       15.4236596977
  S        18.5240215443       15.4657542331       15.3591891214
  S        15.4520843571       15.3594021602       12.2661449565
  S        18.5924643624       18.4944679157       18.4159493753
  S        12.4408844331       15.3264580489       15.2662197139
  S        21.8807573103       27.8479868453       12.3599156982
  S        21.6681704841        9.3905926891       12.4897119262
  S        15.4162207573       21.6599370868       24.5224748119
  S        21.4753597080       12.5063466764       15.3911531353
  S         9.5334863896       18.9546849131       28.0201659776
  S         9.6937521076       15.6024086628       18.4614178830
  S        15.4893311355       21.5513260941       18.4825344362
  S        18.5661133569       24.4691381332       18.3918339062
  S        24.6745094720       15.3794286361       21.5381192171
  S        24.7408634227       15.3147561709       27.7716564995
  S        15.5945961632        9.5660027757       18.4278021094
  S        18.6141302453       18.5356164614       12.5704673784
  S        24.7518522729       27.3233038201       21.3663961364
  S        15.2952847523        9.2583202478       12.2452225360
  S        21.4352450688       18.5849451571       27.3185800557
  S        12.4092676658       21.6155951715       21.5376818497
  S        27.9244164288       12.6316264817       15.5497737056
  S        27.9210028023       28.0176935343       17.8431001029
  S        24.6687852589       21.3112435669       27.5441348204
  S        24.5126793351       15.4709565394       15.4489320552
  S        18.5052529032       21.5228893708       21.4585601962
  S         9.7324936037       24.6951213243       15.4877089086
  S        24.5905806580       24.6352776203       24.2219847040
  S        15.4925554433       18.5420305193       21.4270444330
  S        12.4426427088       18.3952421209       12.4114399196
  S        18.5388584338       12.5184738684       18.3953610376
  S        18.1041245798        8.9170785350        9.3368306857
  S        12.3875761859       24.6455302175       18.5527617969
  S        24.7098739194       18.3256959973       24.5478469470
  S        15.5321369411       18.4263863227       15.3481109799
  S        18.5832384285       21.3901169626       27.2770148083
  S        15.5956773495       27.3236067365       18.2715843764
  S        21.5499533338       21.5398651781       24.4817725381
  S        21.6459711021       27.6148229481       24.3183643619
  S        18.4785135652       12.3515583075       12.3703151497
  S        18.6113368413       21.5727039148       15.3603907190
  S        12.4782599361        9.7075799355       21.4729865202
  S        12.4462127973       21.3682428223        9.3133839028
  S        18.7427616317       12.3318822712       24.5766935583
  S        24.4886689849       18.5005672200       18.4272407357
  S        12.4329091503       27.8850871010       21.6734082170
  S        27.3920149019       21.4620212662       18.5547769410
  S        18.7488103855       24.6325385568       12.2786590420
  S         9.4865687295        8.8215508761       17.8951824772
  S        15.7756030441       24.5841973074        9.2621170680
  S         8.9961477749       17.9821708627        9.3471675041
  S         9.2065670829       12.2816148875       15.1932628969
  S        27.9852907738       12.4007754525       21.6822925479
  S        24.6838281848       21.6292129445       15.3106979358
  S         9.4931221360       15.6005714859       24.5542703315
  S        27.9569994276       21.8213958581       12.3554808464
  S        21.4756396722       18.4193644083        9.5181666616
  S        18.6436255181       15.6200617617        9.5631681770
  S        15.6613170512       12.2909043070       27.2390061393
  S         9.3369396915       21.5305161642       24.6548620277
  S        15.5154701065       18.6644441429       27.4151641064
  S        15.5535865201       15.5875004263       24.3923356817
  S         9.4335223707       12.3704862370       21.2259394682
  S        12.6221055014       27.7928074533       15.5424064301
  S        18.4526507562        9.6447467334       21.3820756070
  S        15.7337100389        9.1822115406       24.3488178118
  S         9.4558486092       21.5821140226       12.4593761934
  S        12.3357980604       24.7508698893       24.5838911262
  S        24.7668651560       12.3289203623       24.5919366889
  S        12.6311178302       18.4566424640       18.3991869309
  S        12.3988599157       12.1710861280       12.2703867729
  S        24.7249898556       18.6799222488       12.2831507404
  S        15.4465954760       24.7228930333       27.6540804382
  S        27.4624321864       18.5300277143       21.3883930065
  S        12.7662055856       12.4461607471       24.5361763127
  S        24.7577745261       24.7298670230       12.2917178952
  S        28.1898928782       18.0117726879       27.5301665450
  S        21.6576767569       18.5624277660       15.3546501465
  S        21.7086674100       12.3789747678       21.5173264244
  S        18.4350895925        9.4607704391       15.3541275607
  S        12.5407843022        9.1368408129       15.1069725034
  S        12.3290930143       21.7958010614       27.6309608708
  S        24.6965809450        9.1443614468       21.7141692306
  S        21.6800182172       15.3667431096       24.5430451207
  S        15.5426372345       24.4462982062       15.4169118620
  S        21.6216923911       18.4558727995       21.4971068671
  S        24.7873139245        9.6997984973       15.4754636578
  S        18.4655102954       15.5443551498       27.3178270075
  S        15.4815450793       12.4517277605       15.3318446663
  S         9.3186612832       15.1998178616       12.1902495327
  S        21.4558861883       24.4925476583       21.4283280486
  S        24.6160083472       12.3686383845       12.5879350793
  S        21.5937464703       21.5547442123       18.3445215198
  S        19.0970439400       28.1110441097        9.3084262049
  S        12.4456557346       12.3412822500       18.2487362533
  S        24.7267430292       24.6582050313       18.2820295830
  S        21.6032750083       15.4236091405       18.4906775395
  S         9.5365137138       18.3464606253       15.3607278567
  S        12.5811672047       21.3815561100       15.3808258491
  S        21.5696429467       15.4654425603       12.3700504871
  S        27.3278685561       21.5728178352       24.5009880411
  S        27.4034357751       15.5491113185       18.2937583792
  S        24.7416598882       12.3462822030       18.5634603300
  S        19.2160013058        9.1574446915       27.9450816202
  S        21.5146187522       27.4190887218       18.4983417762
  S        18.5695875087       18.5029472945       24.3321654013
  S        27.9428971177        9.0126701158       19.0144380648
  S        27.9408252681       15.2245054286       24.5039995029
  S        27.9584749003       24.6341157572       15.1840124313
  S        12.5952860010       18.5567445752       24.5225924128
  S        27.9020857032       24.3916011707       21.2815598102
  S        18.4911002388       21.3791003578        9.5121266800
  S        18.0855195067       28.0880980915       27.4710725330
  S        15.2706675052       27.7180298890       24.6166852611
  S        12.4423193924       24.5251991952       12.5726757674
  S        15.5160110374       27.2506029981       12.2967848422
  S        15.5947975665       12.5347800139       21.4351189955
  S        21.8964268690       12.4261706155       27.7982840024
  S        24.6837892506       15.7025507200        9.2747571710
  S        21.4729924738       12.3745976849        9.3218923819
  S        28.1967471215       19.0406199533        9.3143163242
  S        12.3654969426       15.3390594339        9.2060713942
  S        15.5230723245       15.4489197626       18.3689323185
 Cl        24.5269364774       18.2444776224        6.5358600668
 Cl        30.2682754114       15.6792191720       21.2324081107
 Cl        21.5295832971        6.8503428850       21.3350137832
 Cl        24.5117962070       18.7965868853       30.3033909697
 Cl        18.7678675146        6.7731031168       12.5279404065
 Cl        30.6295195001       18.5047833381       18.4200673238
 Cl         7.0705682805       24.4554511252       18.1728515000
 Cl        12.7139922407       30.5933880580       18.3016563370
 Cl        15.7863616730        6.6397852704       15.6545791548
 Cl        30.2057736867       18.2558039232       12.5659744652
 Cl        12.1978799815        9.8810401494       27.3348751592
 Cl         6.6819513702       18.2493371454       24.3780856525
 Cl        21.3998285943       30.6441623446       21.2072363860
 Cl        15.6321969144       30.4886207647       15.4522206778
 Cl        18.3354373032       12.5225412632       29.9203937662
 Cl        15.6805363729        6.4869001745       21.3616549055
 Cl        18.8163109800       24.4356370996       30.2965562575
 Cl        18.6975728723       18.4211367573       30.4544880897
 Cl         6.8144987727       15.5452083613       15.6115804856
 Cl        12.6705568970       18.6891899247        6.5444116941
 Cl        24.5426947312       30.0067007131       18.6937536180
 Cl        18.6518475346       18.5694185103        6.3177413899
 Cl        18.3110948892       24.4330848659        6.5371804414
 Cl        30.2458493111       21.3440127250       15.6187592468
 Cl        18.5648776267       30.5343791728       18.3626577929
 Cl        27.2492787951        9.6452005485       12.0146452987
 Cl         6.8455841923       21.3875201421       21.2396987992
 Cl        30.7005105454       12.7184380205       18.3157192243
 Cl        18.7233585301        6.4736921579       18.5748072266
 Cl         6.4199390608       21.3333990101       15.6323937044
 Cl        18.5151229563        6.3945200554       24.2424387581
 Cl        21.6077630011       21.5232677252       30.3051316676
 Cl        15.7568571978       21.3494097265       30.2087151969
 Cl        24.5799381924        7.0229875854       18.1568573101
 Cl        18.8320742838       12.5986730649        6.5503525717
 Cl         6.5101842357       18.5114670226       18.5015867847
 Cl        18.7314567140       30.2185337682       24.2734818054
 Cl         6.8682188444       18.6452480347       12.5227506439
 Cl         6.7172866147       12.4981835741       18.6990765216
 Cl        15.6306459373       30.2272414109       21.2056726006
 Cl        15.7855980743       15.6849020155        6.7316050817
 Cl        18.3383937611       30.1591567654       12.5482753326
 Cl        27.2245723920       27.3513882343       24.8387191371
 Cl        21.4108466847       30.2579062341       15.6177216038
 Cl        30.5977781548       15.6235543764       15.5306393894
 Cl        30.2095790533       18.7781250512       24.2747478451
 Cl        30.5987311086       21.3891890133       21.2999429542
 Cl        30.6727284731       24.3050317507       18.5350997869
 Cl        15.7989750842       15.6543138579       30.5510673623
 Cl        15.5904417177       21.4833549014        6.5233703753
 Cl        12.7313947825       18.3071765238       30.1177612555
 Cl        21.4822105586       15.5895329928       30.0964169611
 Cl         6.6755849788       15.4379501182       21.4501591459
 Cl        12.7623775338        6.8059000492       18.6905327447
 Cl        21.5936122756       15.5236293213        6.5247954258
 Cl        21.4609853419        6.3530099221       15.6272639629
 Cl        21.5312847752       21.4418414491        6.7878861060
 Cl         9.6380774845       27.0833962200       12.0057764336
