     282
 i =       80, E =    -10326.6118867845
 Ga        24.5024071644       21.9532390017       13.6232538999
 Ga        21.9571943716       13.7837930301       13.7694864160
 Ga        16.6628706693       24.5697123623       19.2305414191
 Ga        16.7478461945        8.4908948632       13.6246412253
 Ga        19.2142007863       16.4060177732        8.4105509948
 Ga        22.0304020052       13.7896333813       19.2167727826
 Ga        16.5074982161       13.7015586220        8.4126117106
 Ga        19.2344995808       16.4888185622       13.7724707313
 Ga        19.4594982824       16.3465497329       24.5858032316
 Ga        16.6506683793        8.3436969528       19.1414137619
 Ga        19.1574983144       19.1494018936       11.0623530632
 Ga        21.9406294020       16.4180793791       11.0646300565
 Ga        21.9560262347       16.4968385039       16.5101771184
 Ga        22.0277194611       16.4228633612       21.9401261246
 Ga        16.5837987671       13.7776681783       13.7739555748
 Ga        19.2255877860       19.1494531312       16.4942431120
 Ga        19.3869674046       19.1424072082       21.9287746455
 Ga         8.3218386906       11.2220026347       13.8565383739
 Ga        21.7908554396       19.0545579299        8.3364515977
 Ga         8.0920456942       15.6084897936       11.1211726232
 Ga         8.5716888791       13.7086343288       16.6665901326
 Ga        16.5798694231       13.7581612152       19.1563402296
 Ga        21.9369964848       19.2038140889       13.7894824221
 Ga         8.6725785543       16.5060510053       14.0283496589
 Ga         8.5735272016       16.4278080676       19.3722064849
 Ga        22.0223757282       19.1488567755       19.2300490285
 Ga         8.4931756103       19.2996221968       16.5826035223
 Ga         8.5619502044       19.2048631214       21.9326798504
 Ga        19.3056763389       16.4913668234       19.2228403657
 Ga         8.5736767424       22.1098521605       19.2256295147
 Ga        22.2019422981        8.5706320930       19.1495069452
 Ga        21.9265676528       21.8569423494       11.2184007250
 Ga        16.5929912438       24.4224062194       13.9373821824
 Ga        19.0635112411       21.7941605381        8.3424383202
 Ga        19.2844057595       21.8629716509       13.7881744972
 Ga        16.4293283896       21.9349216230       11.0679150692
 Ga        19.3100071901       21.8738300696       19.2192149429
 Ga        21.7029948519       21.6084946321       16.2426143159
 Ga        16.5775341951       21.8808215458       16.4997197302
 Ga        16.5853411045       13.6160656614       24.5734153965
 Ga        16.5769716151       21.7749908481       21.7876734932
 Ga        22.1039044935       24.4155642432       13.6200993258
 Ga        19.4670473242        8.4849351261       16.3388392261
 Ga        19.1486409872        8.2534504249       21.7776265514
 Ga        22.1871688210       13.6153405051       24.4271494680
 Ga        11.6241960876        7.8227204337       14.5980269540
 Ga        18.4811647583       25.1635804935       11.5474564642
 Ga        11.3890202260       11.0488307844       11.0646718559
 Ga        11.1529685556       11.0539058525       16.5834757892
 Ga        24.6730783361       10.9684733110       19.2925011015
 Ga        11.1487649725       13.8498684761        8.4168080680
 Ga        11.1411161081       13.6916147622       13.8642667961
 Ga        11.2184391425       13.7690114927       19.2430394992
 Ga        22.0922203478       11.1374204937       16.4865131059
 Ga        11.2181731278       16.4274767552       11.2321848223
 Ga        11.2044499117       16.4962779258       16.5708478715
 Ga        11.2178216240       16.4240954801       22.0142388089
 Ga        16.5960860299       16.4238818935       21.8701218795
 Ga        11.1385999662       19.2315432509       13.7986730155
 Ga        11.1483027445       19.2151208113       19.2134355425
 Ga        11.7148087122       18.3006023054       25.4831044319
 Ga        11.1402560700       21.9383288140       16.5018769606
 Ga        11.0693150582       22.0349652114       21.5319856949
 Ga        10.9876127048       24.5735950109       19.2187639950
 Ga        19.3118559913       13.7138873076       21.8741560732
 Ga        16.4161864671       19.2244791562        8.4112170523
 Ga        19.3893835954       24.4966544192       16.6442494619
 Ga        24.6796907317       13.7597864356       16.5682983563
 Ga        19.3731102853       11.1377122228       13.7107641189
 Ga        24.6623778784       13.6926002373       22.0947817370
 Ga        16.4999552528       19.2192169623       13.7698332907
 Ga        16.5045599607       16.4907175062       11.0595513595
 Ga        19.3741064809       11.0578120565       19.1398321605
 Ga        13.7838859906        8.4367207503       11.0534194804
 Ga        14.0268550626        8.5726140668       16.4174737242
 Ga        24.4935513876       16.5096995462       13.9344979893
 Ga        13.7725476964       10.8792518173        8.5826764301
 Ga        13.9382898224       11.0765611987       13.7569064095
 Ga        13.8725518118       11.0532242214       19.2120646704
 Ga        24.6608879688       16.5015738613       19.3678070445
 Ga        13.8662603792       13.7809577595       11.0779223885
 Ga        13.8620473759       13.7725480329       16.5003001079
 Ga        13.8674405226       13.6960242510       21.8687825510
 Ga        19.1443222527       10.9806875888       24.5860808542
 Ga        13.7661863404       16.5736449725        8.4188140829
 Ga        13.8520530473       16.4954760656       13.7845031960
 Ga        13.8695314756       16.4965732115       19.2334097676
 Ga        14.0222879468       16.4258974611       24.4205806951
 Ga        13.7827779245       19.2335132068       11.0633273544
 Ga        13.8512184724       19.2205282132       16.4912718033
 Ga        13.7802065447       19.2191311342       21.9570508760
 Ga        13.7840784486       21.9340524111       13.7753268581
 Ga        13.8622354884       21.9385777144       19.1458384955
 Ga        15.8428209705       21.9533602173       24.9154729065
 Ga        16.5764401576       11.0728616004       11.0568036718
 Ga        13.7780409934       24.5927758986       16.5042604041
 Ga        13.9388692629       24.5804379152       21.8612724135
 Ga        16.5690929698       16.4914152739       16.4955638743
 Ga        22.3533847658       11.2282023380       21.6886086751
 Ga        16.5657206842       10.9803421982       21.8577073414
 Ga        16.7455543016       19.0387377962       24.3331630988
 Ga        25.2380916831       18.3961384543       11.5419107746
 Ga        24.5855772599       19.2380645271       16.6615813424
 Ga        19.2293732544       13.7794962387       11.0557288217
 Ga        16.5762293499       19.2092000832       19.2256892099
 Ga        16.6558180088       11.0631072899       16.4296866696
 Ga        19.3071926933       13.7788700683       16.4879407695
  P        17.8688030569       23.1810416256       12.4917130205
  P        17.9567550529       12.4174835163       17.8265706671
  P        20.6944106070       14.9913404412       23.2389634546
  P        17.9374407032       12.3362691013       23.2022723639
  P        15.1528362382       23.2409477977       15.2111327807
  P        17.9377282173       23.2023514780       17.8669695150
  P        17.9005853223       20.5375163617       15.1263528334
  P        15.2516147647       23.2329322223       20.5398985336
  P        23.3406428092       20.5295573940       15.1070082424
  P        23.3767225579       15.0744163975       20.6245079022
  P        20.6434500416       23.2605841267       15.0957839376
  P        17.8238093293       15.1297077006        9.7182199361
  P        20.5301126012       17.8100096870        9.7450279418
  P        23.4002049207       23.2902003224       12.1011300386
  P        18.0048855551       20.4999990593       20.5515527850
  P        17.9726981215        9.7028040286       20.4778095189
  P        20.5971753845       17.8410928566       15.1312470600
  P        23.3218482500       17.7922475778       17.8931566644
  P         9.7956559804       12.3904272594       15.2078341312
  P        20.6787965584       17.8060278322       20.5658258903
  P         9.8142657703       15.1671395735       12.5627523756
  P         9.8642857734       15.1549790264       17.9232146198
  P        17.8121866910       20.5374839112        9.7501643230
  P         9.8641977767       17.9320815863       15.2911782801
  P         9.9029449495       17.8593970674       20.6510832427
  P         9.8160623850       20.6174160038       17.9231800215
  P         9.6240854589       23.5086804561       20.6914594363
  P        17.9142320336       15.1446463448       15.1486993111
  P        20.7209797254        9.7584965859       17.7976350566
  P        17.9399399246       15.0914753960       20.5240224654
  P        20.5452956009       20.4819012897       12.4141934544
  P        17.8432501698       17.8395604209       12.4361243719
  P        23.2471432763       17.8041580625       12.4851254947
  P        12.2847645030        9.5278185725        9.6951979375
  P        12.5732347592        9.8160699356       15.1620260463
  P        20.5989150344       20.4806159578       17.8558673120
  P        12.5319704462       12.4627224047       12.4729573702
  P        12.5394834257       12.4292308706       17.8584229298
  P        15.3296641556       20.4798874128       23.2426173600
  P        12.4776569176       15.1531341337        9.7632790754
  P        12.4888877792       15.1423242482       15.1466442447
  P        12.5548164271       15.1444790357       20.5874518287
  P        12.4992907167       17.8790521179       12.4607566728
  P        12.5369860645       17.8735722078       17.8891469901
  P        12.5687058462       17.8228053692       23.3486568929
  P        12.4909350194       20.5781202589       15.1600094197
  P        12.5373795626       20.5777241249       20.5262874498
  P        12.4707690575       23.3070832785       17.8893111242
  P        20.6648819039       12.4600117847       15.1453654276
  P        17.9017829910       17.8312601658       17.8754366203
  P        20.6686726274       12.4029583589       20.5287779213
  P        23.3053891272       15.0981695089       15.2181887567
  P        20.6350157072       15.1394036608       17.8619604459
  P        18.0859156548       17.6666650145       23.1936072582
  P        23.5381758389       12.1715241966       23.3664388381
  P        23.5194112847        9.5862622199       20.6846333633
  P        17.9084011928       12.4449739209       12.4167753257
  P        18.0180941538        9.7776205440       15.0627127064
  P        20.5741695195       15.1483282044       12.4285954754
  P        15.2158020412        9.7180157470       12.4012339885
  P        15.3179142678        9.7395944404       17.8552845748
  P        15.1390768245       12.4008811200        9.7355165199
  P        15.2365724909       12.4378052189       15.1433063905
  P        15.2561239175       12.3955529417       20.5230021095
  P        15.1923424410       15.1434342079       12.4390697262
  P        15.2119453948       15.1526533106       17.8478809461
  P        15.3058057546       15.0122638146       23.2260431450
  P        23.3968980155       12.4365843678       17.9189779377
  P        15.1434374895       17.8582309417        9.7468357809
  P        15.1970944969       17.8538697161       15.1504456639
  P        15.2126248082       17.8760460650       20.6146930819
  P        15.1438404160       20.5737898672       12.4329085851
  P        15.2232508400       20.5553146049       17.8537439746
 Cl        18.4049649515       23.2019332815        6.9678619378
 Cl        20.4261405695       25.8071420526       12.5003699111
 Cl        26.2079567225       10.0829245956       18.1495677383
 Cl        26.2432655760       13.0138765723       15.3741042494
 Cl        25.8983948714       12.4574002983       20.5840060928
 Cl        16.5196802881       26.1583965087       12.4899933460
 Cl        26.2132748233       16.4430934245       12.4465540079
 Cl        25.8755868263       15.2069333815       17.9045393945
 Cl        26.1289913917       14.8426473406       23.0757990009
 Cl        17.6249022608       26.0561616291       20.3552937825
 Cl        26.0235271490       18.4763715420        9.6187692713
 Cl        25.7919503981       17.8572783788       15.2631635228
 Cl        26.1442060694       17.6639399332       20.2778396749
 Cl        17.3553183388       20.5446043328       25.9251133981
 Cl        25.9002735031       20.3463759618       12.5006478430
 Cl        26.0617141637       20.4415994262       17.5254695421
 Cl        26.0089173383       23.0273803976       14.6249762622
 Cl        18.4988246933       25.9794366786        9.6370046952
 Cl        17.9290910522       25.6942949184       15.3086050332
 Cl         7.1966169475        9.6759680176       14.6850500112
 Cl        23.0115103723       20.5545881207        9.6588360002
 Cl         7.2435202905       12.5076736190       12.5540110221
 Cl         6.9552555115       12.7344406643       17.5657968205
 Cl         6.6977542516       14.8068043690        9.8230094679
 Cl         7.3473668386       15.2019982774       15.2760488672
 Cl         7.0191982739       15.5056075470       20.4247527268
 Cl        20.5035798048       25.9923233305       17.5875555463
 Cl         7.0727874900       17.1234004603       12.5379111404
 Cl         7.3711001940       17.8646667100       17.9947248850
 Cl         7.2170167972       18.5160708867       23.3580985099
 Cl         6.9055272293       20.0985399771       15.4669613217
 Cl         7.3871002835       20.6258501938       20.6663400425
 Cl        15.2420756013       25.7635774226       17.9039782062
 Cl         6.9431001683       22.9511418441       18.2004269919
 Cl        14.7346033046       25.8201349910       23.3365000110
 Cl        23.0996712742       25.9666522668       14.6275666395
 Cl        20.4259846042        6.9354272513       15.3166838363
 Cl        20.7407665286        7.2535337809       20.6423037348
 Cl         9.7056710342        7.0285495898       14.5988187233
 Cl         9.7682222350       10.0628004500       12.3406218489
 Cl         9.9894006786       12.4562496317        9.8237004045
 Cl        12.7083209220        9.6772096000       20.3097477150
 Cl         9.7120426501       14.6548770840        7.1392990527
 Cl        18.0666170964        7.2361382709       17.7526139590
 Cl         9.7083067592       18.1139339089       26.0043961999
 Cl        18.3416586290        6.9053246277       23.1354534550
 Cl        12.5408591100       20.3752059473        9.7893195727
 Cl         9.9560080765       20.7043555568       23.0572238941
 Cl        20.5828564666       22.9723464743        9.6887630931
 Cl        10.1992002632       26.2339262947       18.2053654592
 Cl        17.6753464565        6.9166768470       12.6149068661
 Cl        20.1951788165       17.5295141150       26.1569085566
 Cl        20.5387371379       20.5514465553        7.1426948319
 Cl        18.0019850643       14.9814766058       25.7621350706
 Cl        17.8477303481       17.8811505262        7.2300566274
 Cl        20.5105810228        9.7104714158       23.1353350332
 Cl        12.5933541746        7.0872782795       12.7184978884
 Cl        15.6244488968        6.7613450140       20.0680699085
 Cl        17.4974440772       12.8158028867        6.7989802081
 Cl        12.3767898806       12.3949004645        7.2910859013
 Cl        12.5668660065        6.8544595322       16.5658023917
 Cl        12.6785393107       16.1710661049       26.1768169281
 Cl        12.6134496677       17.5353259425        6.9527457438
 Cl        23.1766993673       18.4273649886        6.9262583782
 Cl        23.0396310458        6.9006200898       18.1816325529
 Cl        15.5049651591       20.3337051168        6.8840422016
 Cl        12.7616384954       19.8785665469       26.4210639933
 Cl        20.4912103590       23.2074296625       20.3638863278
 Cl        15.4439908327       23.3346383332        9.8359432854
 Cl        12.4833190982       23.1916177086       23.0048058698
 Cl        13.0013215532       26.2020657675       15.4066484681
 Cl        12.5498044747       25.7814518357       20.6264147102
 Cl        14.9288978203       23.1820579605       26.3042034845
 Cl        20.6985774600       12.1161535813       25.6642258326
 Cl        20.3129411424       15.6049592406        6.8188422190
 Cl        20.4619957304       12.7330864810        9.6992975435
 Cl        18.3010529273        9.6256792526       25.9168665779
 Cl        22.9057743309       14.6329155131       26.1279219937
 Cl        14.7027277722        6.8107630552       10.0927085936
 Cl        15.4058865526        7.3037278596       15.1401960567
 Cl        14.7295433333        9.9763631699        6.9452565533
 Cl        15.5151209684       12.7075527392       26.1316689538
 Cl        15.0922465865       15.1624530116        7.2307492264
 Cl        15.5043373394       17.7206202991       25.6914904371
 Cl        20.3139213505       20.4791141758       23.2866212770
 Cl        23.3512527095       12.8146095102       12.5089490694
 Cl        15.4403378525        9.7060258705       23.1070944453
 Cl        23.3424687235        9.9388686846       15.2792726263
 Cl        20.5610321277        9.9148683581       12.4755284508
 Cl        17.6984524571        9.8603491208        9.7460046948
 Cl        23.3141526199       15.5026340935        9.7502701975
 Cl         9.4134856091       17.1641329609        9.9986057380
 Cl         9.7725403150       20.2848611830       12.5720973689
 Cl        12.6950531761       23.3194654194       12.6122081536
 Cl         9.8737283368       23.2036828237       15.3794496620
 Cl         9.9563266118        9.6920318149       17.6590220813
 Cl         9.9097685749       12.5856060173       20.4055049728
 Cl        12.6941805634       12.5909718957       23.2332681915
 Cl         9.9453062254       15.3184343126       23.2770654347
 Cl        17.3308968240       23.0736839019       23.5593285127
 Cl        23.1247116143       17.6832899695       23.2376080899
 Cl        23.2160982861       20.5528731177       20.2681461990
