     149
 i =       26, E =     -4089.9901951755
 Cd        13.2249078335       14.4718386980       11.7683669323
 Cd        13.3501629713       11.6536441602       15.2797675545
 Cd        10.8025958790       15.2771411947       15.3784621912
 Cd        16.8521616398       16.8671765648       10.8872910516
 Cd        16.9408525739       13.9149052128       14.2226332991
 Cd        14.3787129305       17.8370854081       14.4891003685
 Cd        16.8614382782       11.0768809838       17.7250537411
 Cd        14.3805148266       14.8060066429       18.0692426281
 Cd        12.0810883022       18.6537868099       18.2436098205
 Cd        20.5523442941       16.3955752924       13.4504465776
 Cd        18.0929149907       20.1868265115       13.7079468322
 Cd        20.5137432375       13.5327366311       16.8373675074
 Cd        18.2319389838       17.3530971154       17.1240666123
 Cd        15.6899675561       21.0421706745       17.3405351462
 Cd        18.0990580405       14.4044378482       20.5485806990
 Cd        15.7448894365       18.0161538839       20.6542611247
 Cd        12.4996186636       11.2906122081        9.0238193306
 Cd         9.8883846455       15.4602576969        9.4364733797
 Cd        11.9418967756        8.6510281958       12.1698370921
 Cd         9.6558316313       11.6828167154       12.4810393680
 Cd         7.6112581034       16.1536226563       12.9585088081
 Cd         9.8441580044        9.4311355541       16.6583265444
 Cd         7.6093256464       13.0376526059       16.6385605695
 Cd        15.7254261454       13.4236350919        8.0743164649
 Cd        13.1067529414       17.5372761782        8.3883226125
 Cd        15.7620916462       10.3260363873       11.1778257138
 Cd        10.5360887472       18.6410998767       11.7562025066
 Cd        15.4819376256        7.8211888940       14.5760387640
 Cd         8.4557920813       19.2022731607       15.5123236827
 Cd        13.0814238172        8.7582599735       18.7843678760
 Cd        10.4936237531       12.2622458472       19.3143587295
 Cd         8.4355199453       16.0808761290       19.2026764367
 Cd        19.0780741066       15.5158464215        7.6010018132
 Cd        16.3759200771       19.7561873544        7.8800265025
 Cd        19.3691872704       12.6445573303       10.3618224684
 Cd        14.0716444880       20.9629950441       10.9301990007
 Cd        19.3411734660        9.8558176426       13.6300478044
 Cd        11.7373458336       21.8335472503       14.4554620376
 Cd        18.8855568950        7.6183242855       16.8667910492
 Cd         9.8505241941       22.0957259235       17.9939412418
 Cd        16.3241146773        8.6356269965       21.0612978007
 Cd        14.0539460315       11.8365638859       21.7477149793
 Cd        11.6864732933       15.4413865787       22.0017489779
 Cd         9.8469440923       18.9841277602       21.6732481936
 Cd        22.5676377240       15.0492534918       10.0532688612
 Cd        20.3278879684       19.1320860673       10.3151811935
 Cd        17.5534190344       22.8935457700       10.5511726233
 Cd        22.8147754647       12.4747744905       13.0660643099
 Cd        15.5151429174       23.9310588819       13.8005386566
 Cd        22.4795728086        9.9284566744       16.1223537406
 Cd        13.2663523713       24.4570494913       17.0360850124
 Cd        20.2652895787       10.8887799644       20.0898573093
 Cd        13.5400831540       22.0682952700       21.2602340299
 Cd        17.5124426534       11.7719393895       23.7395529130
 Cd        15.5012005719       15.1679399676       24.1933286189
 Cd        13.2002586142       18.3335616597       24.1962700104
 Cd        23.9920084353       18.7730035569       13.1972871467
 Cd        21.6760999732       22.3821545437       13.4098422432
 Cd        24.1968945591       16.1061744138       16.1525056554
 Cd        22.1511384671       19.9689346525       16.5521449375
 Cd        19.5159632536       23.4677242021       16.5685797926
 Cd        23.9026740086       13.6767670691       19.2896169714
 Cd        22.0833509784       17.2078680073       19.8418351402
 Cd        19.7508802085       20.8818228365       20.0873076463
 Cd        17.3115107790       24.0775533862       19.8311848525
 Cd        21.5245381687       14.6362831033       22.7936315678
 Cd        19.3573156753       18.0842851914       23.2664682288
 Cd        16.8365548903       21.6202108674       23.1410511094
 Cl        14.7125547601       23.4787210227       23.0034907078
 Cl        17.1803264981       24.8335536541       12.0060186747
 Cl        11.1734730107       16.1329906240        7.4263329566
 Cl        17.1315355690       13.5327477613       25.4058046156
 Cl         9.4625748861        9.5040901960       11.1911572686
 Cl        25.4405016325       14.2312836119       17.4442490297
 Cl         7.7727663192       18.1720704032       20.5883166922
 Cl        18.4309312298       25.3134869554       17.9846823930
 Cl        14.7190335966        7.1231103322       19.9840429194
 Cl        18.2235657490       19.9375933129       24.5845101427
 Cl        14.7722725358       25.7065092419       15.5153480453
 Cl        13.5731252216       12.4313033367        7.0899064996
 Cl        11.1209876788        7.5483238540       17.6402401617
 Cl         6.5512014839       14.9266590099       17.8432034462
 Cl        20.6484310361       16.1142979233       24.5272044701
 Cl        24.1814123465       10.9413127009       14.6536775289
 Cl        16.9458978295        6.2907034558       16.2166856854
 Cl        24.2424862865       13.7640233561       11.3180338107
 Cl        20.7911721776       24.3969730665       14.4883716419
 Cl         6.5563079432       17.6936164763       14.5810734740
 Cl        13.3213674737        6.9270709429       13.5758625237
 Cl        14.7684625878       18.4310299812        6.5829215906
 Cl        17.1413252852       14.7368956500        6.3160801495
 Cl        25.4829345172       17.0297345606       14.0876207471
 Cl        14.7170996022       17.0926139759       25.7089914474
 Cl         7.7723318945       20.9354873756       17.3207919691
 Te        14.7964836679       12.5119310113       13.0291342329
 Te        12.1382605223       16.5785578531       13.2699852574
 Te        12.1290425614       13.4459573474       17.0478269448
 Te        18.5514240818       14.9775805126       12.0949643230
 Te        15.9061383860       19.0527264688       12.3696354490
 Te        18.5228533750       11.9739314720       15.6355576585
 Te        15.9973995691       15.9738155090       15.9753868760
 Te        13.4076070292       19.9508215750       16.1258743447
 Te        15.9073131534       12.9182680338       19.6207971692
 Te        13.3797447304       16.7516208383       19.8493641487
 Te        19.8977207228       18.5498537737       15.1162013486
 Te        19.8591159080       15.5529779250       18.6674303129
 Te        17.3970586709       19.4143726909       18.8650730018
 Te        13.5114857639        8.9929442103        9.9596443073
 Te        10.9964984834       13.1437698182       10.4607230335
 Te         8.2322903090       17.2483679669       10.5690378623
 Te        11.1047385730       10.2016399722       14.3393626919
 Te         8.5140796899       13.8025943353       14.1255543781
 Te         8.1613674639       10.8840923742       18.1705031546
 Te        17.2665340014       11.4113891268        9.0635132223
 Te        14.7199854584       15.5738806024        9.6159960002
 Te        11.9891675763       19.6947110054        9.6140134383
 Te        17.2354739962        8.4111351568       12.5698298121
 Te         9.4741443019       20.6046197516       13.4088306324
 Te        14.7309037425        9.6164503704       16.6537532160
 Te         9.8388397386       17.3311538611       17.0984640707
 Te        11.9675199562       10.3406612429       20.7014430582
 Te         9.4200692187       14.2341814389       20.9491963297
 Te        21.0676255838       13.8202599929        8.2045817366
 Te        18.4633906603       18.0453665564        8.6283654364
 Te        15.6989687339       22.1988171155        8.7470389966
 Te        21.0700202133       10.8988888307       11.7065580539
 Te        13.2741984736       23.1045894399       12.4979233857
 Te        20.9678825343        7.9223372891       15.1875150005
 Te        10.7493227852       23.9474799155       16.2413441001
 Te        18.4295977775        9.0254699277       19.2652684220
 Te        11.1692230714       20.8449632220       20.0883034965
 Te        15.6540259526        9.8838165733       23.3364050112
 Te        13.2531467612       13.7529151278       23.5799689620
 Te        10.6641001855       17.5344160666       23.7986535930
 Te        22.3283294380       17.5404394324       11.3084225024
 Te        19.7621352884       21.5015296630       11.5657595396
 Te        22.2036835705       14.5886488720       14.8419319652
 Te        17.2516112837       22.3100591086       15.3249683849
 Te        22.2589010022       11.6102694574       18.3502708418
 Te        14.7870639340       23.2452521155       19.0016525615
 Te        19.7420852785       12.5277969075       22.2281818316
 Te        17.2736048396       16.3683815688       22.3556244713
 Te        14.7371222120       19.8901896124       22.5261919883
 Te        23.8485205576       21.1598312595       14.4047090990
 Te        23.8135446440       18.1728635609       17.8743469924
 Te        21.3095317584       22.1027845272       18.0938272365
 Te        23.7385359410       15.3013988900       21.4143040262
 Te        21.2799278149       19.1461730493       21.6442333863
 Te        18.7778884786       22.9925797379       21.7949395026
