      35
 i =        8, E =      -880.5113953352
 Hg        10.2004391309       15.3190182392       10.2101710994
 Hg        10.2213898191        7.6754702999       12.7937606979
 Hg        13.0848354684       13.0940375400        9.9038901838
 Hg        15.3217542454       12.7982304753       12.7817854810
 Hg         7.6717870226       12.7794913181       10.2155452646
 Hg        12.7820098022       15.3259523338       12.7846892130
 Hg        12.7852902245       10.2111363997        7.6749404386
 Hg         7.6817264194       10.2037190544       12.7958931559
 Hg         9.9071467932       13.0885897472       13.0928995421
 Hg        13.0963655491        9.9146637554       13.0886303000
 Hg        10.2016332781       12.7831441456        7.6770514996
 Hg        10.2197186497       10.2108952214       15.3266708163
 Hg        12.7918778366       12.7938336892       15.3206814989
 Hg         9.9077741613        9.9023155629        9.9104246337
 Hg        12.7953345057        7.6794466388       10.2114754817
 Hg        15.3238243635       10.2193022759       10.2050383897
  S        11.4990250349       11.4999134560       11.4989855339
  S        11.3477598948       14.6648252892       14.6620326720
  S         8.3406812209       11.6446801264       14.6690080080
  S        11.6621324975        8.3397296620       14.6651674680
  S        11.6366944616       14.6617587265        8.3328658247
  S        11.3522613318        8.3333800486        8.3381593721
  S         8.3293764178       14.6561279945       11.6523130758
  S        14.6575486347       11.6548162698        8.3301048306
  S        14.6552866068       14.6703262517       11.3426038424
  S        14.6689145016       11.3594719201       14.6584668837
  S         8.3426054487        8.3289014150       11.3578284693
  S        14.6708341029        8.3445986850       11.6464620688
  S         8.3309398711       11.3408506273        8.3407356278
 Cl        11.4896258031       11.4952046999        5.7436698182
 Cl         5.7445743347       11.4866944503       11.5089833496
 Cl        11.5133650889        5.7452984758       11.5042753722
 Cl        11.4862586749       17.2546867195       11.4962269093
 Cl        17.2551173205       11.5144310124       11.4892156366
 Cl        11.5092786357       11.5037476411       17.2561829184
