     282
 i =       93, E =     -8192.1751067115
 In        25.9940623271       22.9408493512       12.8696018567
 In        23.0994282690       13.5367790354       13.3629601734
 In        16.6586688445       26.1530088407       19.7226931693
 In        16.6712238449        6.8479284925       13.1253203498
 In        19.5498172329       16.4173371387        6.7609419783
 In        23.0950903960       13.2891302448       19.7232978385
 In        16.3344663768       13.1223189614        6.8429541398
 In        19.7302926981       16.4965814361       13.2169258051
 In        19.9685679221       16.2490159516       26.2384817641
 In        16.7456628243        6.7616788439       19.5662407406
 In        19.6404588711       19.6427970139       10.0551837833
 In        22.9337452009       16.3378790599        9.9019365036
 In        23.0216160553       16.6536654805       16.6706506923
 In        23.0971225057       16.4890806032       23.0135866549
 In        16.5814425823       13.2787932499       13.2138417314
 In        19.7909432819       19.7171786561       16.5807648745
 In        19.8919917656       19.6434137150       23.0133283135
 In         6.7648644863       10.3821729169       13.1913217838
 In        22.7002871185       19.6403716015        6.9196991038
 In         6.5117531033       15.1041691564       10.2169778062
 In         6.8526710104       13.2897607068       16.6636814831
 In        16.5818655668       13.1956994966       19.7148581637
 In        23.0175188429       19.6368716672       13.3633118427
 In         7.1056087098       16.4265030692       13.5472541996
 In         6.9218265338       16.5092050169       19.8809541034
 In        23.1791617503       19.7899026782       19.8687264040
 In         6.7724489727       19.8702995065       16.7441638632
 In         7.1745981050       19.8776510387       23.0186492795
 In        19.8088667689       16.4985437649       19.7970412386
 In         7.0863166004       23.1878549949       19.9719684977
 In        23.2672646031        7.0100178985       19.8032193902
 In        22.9329239007       22.7776390082       10.2193576132
 In        16.7449001669       25.9811408514       13.4503037118
 In        19.7169457755       22.8509977767        6.9372547891
 In        19.8783173755       22.7834426652       13.3689562429
 In        16.4183912140       22.9420478491       10.0610519572
 In        19.8798589492       23.0110742171       19.7891831976
 In        22.8423671714       22.6059065379       16.1788800263
 In        16.5792663655       23.0140130988       16.4976448969
 In        16.6771761818       13.1075065377       26.2286338834
 In        16.5750760491       22.7747075535       22.9233106001
 In        23.1830442148       25.8986909654       12.8656986801
 In        19.9649630474        6.8475315562       16.4142279522
 In        19.8004723554        6.9217889591       22.7699471811
 In        23.1865793553       12.9520778507       25.9946922476
 In        10.7210819629        6.2620077970       14.1005839057
 In        19.0605138368       26.6561350443       10.7135258654
 In        10.3135831961       10.0543049668       10.1401645037
 In        10.0622410371        9.9711699908       16.6642437634
 In        26.1640653860        9.8951933117       19.9666799753
 In        10.1379553880       13.2003450539        7.0922570695
 In        10.1417573887       13.0308939288       13.5314851779
 In        10.0637122136       13.1994351313       19.8708401225
 In        23.1776079951       10.0692689439       16.4233613503
 In        10.0678617381       16.4124124802       10.3007124266
 In        10.0539211246       16.5056098679       16.5840225648
 In        10.0662521484       16.3448459981       23.1022929455
 In        16.5802016693       16.3464886103       23.0151628880
 In         9.9819060120       19.8024392894       13.3147704855
 In        10.0678304233       19.7129545012       19.7176043494
 In        10.9727969634       18.8890285091       27.1503550425
 In        10.0634079751       23.0183852184       16.5790108561
 In        10.0649751266       23.1007335145       22.5229109501
 In         9.9834494898       26.0761979237       19.9665890785
 In        19.8864320491       13.1980458427       22.9351922902
 In        16.4242150040       19.7190822677        6.8380403535
 In        19.9592417753       26.0694403801       16.5072436252
 In        26.3211646451       13.2000370758       16.7465202582
 In        19.8816792415       10.0637911389       13.1990648740
 In        26.0875456312       13.1067593119       23.1800882187
 In        16.4211967986       19.7313484992       13.2802617950
 In        16.4948313049       16.4901633823        9.9849495813
 In        19.9688738935       10.0647354932       19.5677368918
 In        13.0310964376        6.9243366025       10.0677624522
 In        13.5253092088        7.0170320726       16.2602496787
 In        25.9006888150       16.1706487496       13.1962419525
 In        12.9506971383        9.7368974519        7.1756370130
 In        13.5267260364       10.0632016726       13.1957731985
 In        13.2923988855        9.9043521771       19.7859800882
 In        26.3127302616       16.4199204194       19.8824112212
 In        13.3627014457       13.2829847889       10.0632678955
 In        13.2898783779       13.2003713684       16.5781716602
 In        13.2891351501       13.1202159334       23.0186811427
 In        19.7953053928        9.9026436540       25.9149668731
 In        13.2711927926       16.4986701909        6.8470074173
 In        13.2087397101       16.5019263265       13.2777897736
 In        13.2906820314       16.4291930567       19.8011232466
 In        13.5987349361       16.5808784912       26.0598685855
 In        13.2029709752       19.7993025021        9.9923698603
 In        13.2767892687       19.7942390348       16.4985904217
 In        13.1853047765       19.6383181214       22.9359051946
 In        13.2086226659       23.0898150115       13.2822296408
 In        13.3694079165       22.9484931108       19.6473573196
 In        15.4376689525       22.9356199850       26.4977399979
 In        16.5685369568        9.9884944430        9.9820046225
 In        13.2825042180       26.2402470983       16.6656304125
 In        13.3627250643       25.9778655724       22.9285734883
 In        16.5089230910       16.4954599579       16.5035620157
 In        23.5029512018       10.1479864343       22.7697073158
 In        16.5119331423        9.9027027918       22.8612726335
 In        16.7377587893       19.5539875759       25.8292454230
 In        26.8153399459       18.8042087471       10.7231937710
 In        26.3156062138       19.6292861612       16.5026453105
 In        19.7187754984       13.2045031025        9.9843025718
 In        16.5820881066       19.7205878484       19.7995538692
 In        16.6610477270        9.9833000971       16.4217709950
 In        19.8870742201       13.2826125134       16.4179557799
 Sb        18.1868739616       24.3254739140       11.7824009850
 Sb        18.2403668151       11.6539363587       18.0410670710
 Sb        21.5299889885       14.7255393437       24.5743821874
 Sb        18.1815166975       11.5477499364       24.4626588516
 Sb        14.8679660760       24.6614399310       14.9758795069
 Sb        18.2550157549       24.5689193373       18.1097086736
 Sb        18.1269657431       21.2877117576       14.9266809550
 Sb        15.0310191320       24.5031379717       21.3274457335
 Sb        24.7677704280       21.2685920556       14.7815558484
 Sb        24.6812780812       14.8236515887       21.4367582608
 Sb        21.5264218038       24.5601859482       14.7613490093
 Sb        18.0091928214       14.7921327190        8.3743604801
 Sb        21.1723709318       17.9948642241        8.4256387348
 Sb        24.7987380560       24.6226091063       10.9826793945
 Sb        18.3072865574       21.3041783815       21.3661211910
 Sb        18.2555488564        8.4760812283       21.1664152672
 Sb        21.3472644677       18.0788958931       14.9315658693
 Sb        24.7549430245       18.1535127125       18.2537760985
 Sb         8.3826056602       11.5692342029       15.0757674193
 Sb        21.5008089165       18.1125077838       21.3708964225
 Sb         8.5810427422       14.7582171158       11.9330700020
 Sb         8.4737277494       14.8900921832       18.2441149013
 Sb        18.0595431804       21.3112801158        8.4607226438
 Sb         8.4192781302       18.2565600893       15.0966167232
 Sb         8.5765995394       18.1121185124       21.4651094833
 Sb         8.4563979583       21.4436254755       18.2631375979
 Sb         8.2197409443       24.9589725162       21.7734133932
 Sb        18.1584263798       14.8949043215       14.8802287681
 Sb        21.5817079225        8.4126020803       18.0355332401
 Sb        18.1970920852       14.7992295033       21.3513399513
 Sb        21.3299916409       21.1281712791       11.7035458834
 Sb        18.0337422039       18.0987395649       11.6751329249
 Sb        24.4205205818       17.9418064593       11.6631583989
 Sb        11.1047295156        8.0749781047        8.4244678596
 Sb        11.7910159267        8.6358779179       14.8618496115
 Sb        21.4611358043       21.3224483556       18.1890204236
 Sb        11.8000213679       11.7069922585       11.7587096101
 Sb        11.6824010593       11.5978660644       18.2214061949
 Sb        14.9568179519       21.1750381918       24.4913631270
 Sb        11.6786675614       14.9255239223        8.5366102255
 Sb        11.6647210684       14.8707294917       14.9692521306
 Sb        11.7023101465       14.8149120175       21.4511125118
 Sb        11.6253138179       18.2091923372       11.6922410933
 Sb        11.7269977534       18.1066113162       18.1554779493
 Sb        11.7274547630       18.0317987350       24.6356896533
 Sb        11.6369931029       21.4271471304       14.9078953581
 Sb        11.7557627146       21.3265216513       21.2513740628
 Sb        11.6705834214       24.6304451647       18.2348123207
 Sb        21.5398402050       11.6733627533       14.7878562238
 Sb        18.1517825943       18.0826808139       18.1638065572
 Sb        21.5246566690       11.6068148484       21.3200203242
 Sb        24.6350944502       14.8952373739       15.2434306896
 Sb        21.4144943144       14.9035909053       18.1497209272
 Sb        18.3826406231       17.8487708541       24.5413140253
 Sb        24.9671268720       11.2289969064       24.8581220913
 Sb        24.9720347902        8.0853602026       21.6628815730
 Sb        18.1476601048       11.6138629377       11.6207466739
 Sb        18.2828130323        8.3976881777       14.7987552817
 Sb        21.3285790613       14.8618666199       11.6170990667
 Sb        14.9415985390        8.3490710614       11.5645324355
 Sb        15.0347955028        8.3839538137       18.1074967824
 Sb        14.7604215917       11.5153646239        8.4462526630
 Sb        14.9939695728       11.6804311208       14.9143800061
 Sb        14.9244190074       11.5820230042       21.3293697729
 Sb        14.9042641152       14.9289488513       11.6811322797
 Sb        14.9272817855       14.8519627037       18.1531887888
 Sb        15.0124468373       14.6921512694       24.6592833140
 Sb        24.6993712008       11.5781607767       18.2317830784
 Sb        14.8421147553       18.1273687863        8.4333252307
 Sb        14.8461650644       18.1047467624       14.9097876337
 Sb        14.9554277684       18.0612260217       21.4225998707
 Sb        14.7976738089       21.3856901552       11.6823061442
 Sb        14.9967219399       21.3313556476       18.1016229414
 Cl        19.3170860619       24.5394136379        5.4599638972
 Cl        21.2079901667       27.2662552294       11.8212163240
 Cl        27.9866277050        9.2112172878       18.7090543659
 Cl        28.0577774362       12.6161884320       15.3509164575
 Cl        27.2531358550       11.6963340110       21.3950021687
 Cl        17.0591402430       27.8630253103       11.8516372502
 Cl        27.8969127605       16.6908268897       11.7945074395
 Cl        27.4596540090       14.8835199389       18.2405446769
 Cl        27.8467630828       14.3556868572       24.0232358742
 Cl        17.5262389297       27.9204821922       20.9136998923
 Cl        27.8969027815       18.9757820803        8.7215081715
 Cl        27.1281579621       18.0273780706       14.8206813653
 Cl        28.0954013498       17.6035907859       20.7212870432
 Cl        17.1174510145       21.3138725625       27.5490999904
 Cl        27.3565035929       21.0174517290       11.7653243542
 Cl        28.1035269598       20.8377509614       17.2936154220
 Cl        27.7062562904       24.0490130859       13.9674285496
 Cl        19.2083890661       27.6462403058        8.6648444700
 Cl        18.2470406814       27.2222196842       15.0298442903
 Cl         5.4204864346        8.6092192747       13.7189463114
 Cl        23.9521621790       21.1738607058        8.5500408722
 Cl         5.8620297255       11.9998386514       11.7587668815
 Cl         4.9451887400       12.3055630967       17.4795142214
 Cl         4.9583975665       14.4268561279        8.7089110707
 Cl         5.7582225650       14.9535377747       15.0325602351
 Cl         5.0905370801       15.6242818068       20.9492003341
 Cl        21.0553763129       27.8458976946       17.4670922598
 Cl         5.3706538735       16.7627913982       11.8084653957
 Cl         5.7827972868       18.1738549240       18.3371107045
 Cl         5.8062079326       19.4306364283       24.7902778749
 Cl         4.9006243242       20.5751607359       15.6160955978
 Cl         5.9712056160       21.4679007957       21.5923706863
 Cl        14.9804957343       27.2975801714       18.2384025853
 Cl         5.1683414511       23.8895104732       18.8889359291
 Cl        13.9520818358       27.2531767414       24.7329463010
 Cl        24.1816246043       27.6382308108       14.0139527239
 Cl        20.8634996521        5.0251216857       15.3464950885
 Cl        21.5609742435        5.8575091006       21.4744736401
 Cl         8.6539736352        5.3092180620       13.9880683644
 Cl         8.5266999053        9.2030441994       11.6959147038
 Cl         8.9613920434       11.7852215777        8.8312246614
 Cl        12.0616807295        8.3617161965       20.9901195580
 Cl         8.4012082635       13.7995435453        5.7280668513
 Cl        18.3430334919        5.6719425320       17.9948375181
 Cl         8.8506758531       18.8231363519       27.9908332505
 Cl        19.2721205000        5.4699963794       24.4469393159
 Cl        11.8563561751       21.0148992753        8.5517168514
 Cl         8.9154433665       21.4195411608       24.0709674233
 Cl        21.2828576507       23.9276147148        8.6386583269
 Cl         9.3384645271       28.0061870389       18.8730073522
 Cl        17.5998125563        4.9767524210       12.1797201917
 Cl        20.5540305653       17.5036308151       28.0747800581
 Cl        21.3573460452       21.4129026593        5.7410309591
 Cl        18.2731684897       14.6973193692       27.3325266053
 Cl        18.0111846741       18.1411794534        5.6916009267
 Cl        21.2335959174        8.7190592088       24.0881742017
 Cl        11.8802283631        5.5839197278       12.0218640575
 Cl        15.8099035120        4.9181623040       20.5816718506
 Cl        17.3796667782       12.3405862182        4.9542683317
 Cl        11.4525490881       11.5067419409        5.9380583776
 Cl        11.9299480455        5.1075062815       16.0677123970
 Cl        12.1469323847       16.7176670657       28.0508566839
 Cl        12.1066448938       17.3962332521        5.0782656172
 Cl        24.3345692549       19.2567115755        5.3756473678
 Cl        23.8867275610        5.0615692257       18.7195762784
 Cl        15.5729351040       20.8975017469        5.0568665312
 Cl        12.3620091031       20.6564190418       27.7658357549
 Cl        21.0824303978       24.5095056478       21.0877939230
 Cl        15.4531761310       24.6167750205        8.7802335096
 Cl        11.8179066820       24.2582812938       24.0065083417
 Cl        12.5474761174       28.1253765183       15.5728903393
 Cl        11.7581869467       27.2038431001       21.5572148346
 Cl        14.7002245997       24.3813328922       28.0838589025
 Cl        21.4989919129       11.2183768836       27.0518074471
 Cl        20.6864966236       15.7349757609        4.8858985260
 Cl        21.1934934911       12.1677702462        8.5277215546
 Cl        19.2747119985        8.2004550190       27.3413088044
 Cl        23.6373598699       14.0437394059       27.9896791430
 Cl        14.0579996224        5.1050640723        9.0778097512
 Cl        15.1426356124        5.7512083780       14.8719517541
 Cl        13.9960887743        8.8915688138        5.2976654019
 Cl        15.6918793700       12.1322726165       28.0643877786
 Cl        14.7584572617       14.8274643378        5.7452279329
 Cl        15.3109086465       18.0167500438       27.2317196005
 Cl        20.7073290124       21.1241489869       24.6167354339
 Cl        25.0904475120       13.7722405288       11.8807152795
 Cl        15.4253159434        8.4179171482       24.2649057696
 Cl        24.5994473247        8.8906062594       15.0189366841
 Cl        21.2002397773        8.7706265255       11.7967246701
 Cl        17.8667830827        8.7594513324        8.5122307661
 Cl        24.3739898271       15.4788401489        8.3109411303
 Cl         7.9636142568       16.9067360003        9.0262612339
 Cl         8.4617569701       20.9036841671       11.9490661871
 Cl        12.0382633725       24.6053992331       11.9816048252
 Cl         8.6459766536       24.4160380429       15.3848612371
 Cl         8.9038199212        8.2750465410       17.7322928340
 Cl         8.5736353383       11.8976699302       21.0729673429
 Cl        12.0174162663       11.8669371843       24.4918590290
 Cl         8.6431366583       15.1837367788       24.5027353895
 Cl        17.1295303364       24.1228564695       24.9850414351
 Cl        24.2633426715       17.8708419536       24.4667699119
 Cl        24.3367526510       21.3864258364       21.0829866747
