      35
 i =       11, E =      -960.9915521822
 Cd        10.1412055755       15.7135265219       10.1515007895
 Cd        10.1645991730        7.2804412743       12.8524163063
 Cd        13.2143479017       13.2260073666        9.7711464728
 Cd        15.7164720592       12.8575145817       12.8382707045
 Cd         7.2762415309       12.8363604515       10.1571784029
 Cd        12.8389712498       15.7211754459       12.8427981202
 Cd        12.8427557794       10.1518490802        7.2794528058
 Cd         7.2867538297       10.1445822008       12.8543298729
 Cd         9.7744830966       13.2198480555       13.2248534116
 Cd        13.2295680769        9.7832216613       13.2206556160
 Cd        10.1423308392       12.8405499695        7.2816637319
 Cd        10.1622507932       10.1521868465       15.7217615962
 Cd        12.8505983050       12.8526661607       15.7154807845
 Cd         9.7763677580        9.7707010694        9.7795988939
 Cd        12.8542736032        7.2848275073       10.1530333594
 Cd        15.7184714891       10.1627128725       10.1453787166
 Te        11.4986783557       11.4998651285       11.4989372148
 Te        11.3195268554       14.9417369577       14.9389045690
 Te         8.0641754716       11.6711539715       14.9462982405
 Te        11.6910936120        8.0626247547       14.9426199392
 Te        11.6625568162       14.9383347905        8.0551178035
 Te        11.3242278685        8.0559024623        8.0614032811
 Te         8.0514663487       14.9320778594       11.6794382652
 Te        14.9330877809       11.6830258322        8.0518358749
 Te        14.9306491096       14.9480837577       11.3138696857
 Te        14.9463466125       11.3333028406       14.9343563799
 Te         8.0666744519        8.0512122768       11.3309043404
 Te        14.9484972549        8.0689876530       11.6729893453
 Te         8.0531313517       11.3120472707        8.0635681875
 Cl        11.4898369100       11.4953472289        5.5999443166
 Cl         5.6008381819       11.4864112349       11.5091935861
 Cl        11.5132840459        5.6021081851       11.5036027001
 Cl        11.4859263566       17.3979370248       11.4956335936
 Cl        17.3985055007       11.5138975234       11.4894531077
 Cl        11.5093588902       11.5039338796       17.3993877047
