      35
 i =       10, E =      -870.4208264564
 Hg        10.1678810795       15.4441272624       10.1780154736
 Hg        10.1898711941        7.5492261553       12.8253840144
 Hg        13.1282575794       13.1386800539        9.8581668840
 Hg        15.4472786052       12.8303549985       12.8128073256
 Hg         7.5445483665       12.8106589917       10.1837852849
 Hg        12.8128347600       15.4523349675       12.8159785430
 Hg        12.8163904301       10.1791774258        7.5480934685
 Hg         7.5562747380       10.1713843729       12.8278670193
 Hg         9.8619384661       13.1327621370       13.1375182966
 Hg        13.1414705785        9.8704355001       13.1330052732
 Hg        10.1690447696       12.8145913473        7.5504034958
 Hg        10.1882755907       10.1793333967       15.4533052456
 Hg        12.8235139072       12.8257052159       15.4461747570
 Hg         9.8630005708        9.8574533798        9.8658566587
 Hg        12.8271752873        7.5539608175       10.1796082270
 Hg        15.4497803729       10.1882194449       10.1726347282
 Se        11.4984939849       11.4998612370       11.4984576520
 Se        11.3135733811       14.8028809633       14.8001280259
 Se         8.2022753651       11.6779441810       14.8074975625
 Se        11.6961039820        8.2017953519       14.8031847360
 Se        11.6693169947       14.8000161707        8.1937850975
 Se        11.3183819793        8.1947068387        8.1998277638
 Se         8.1904904479       14.7938873346       11.6858369688
 Se        14.7950046259       11.6885745660        8.1909220474
 Se        14.7923957811       14.8087141016       11.3081913879
 Se        14.8073380484       11.3262457388       14.7962744617
 Se         8.2043578616        8.1901173158       11.3241717209
 Se        14.8094176456        8.2070173450       11.6797102435
 Se         8.1920775506       11.3067951370        8.2023418923
 Cl        11.4891320098       11.4950499900        5.6440253911
 Cl         5.6453528554       11.4862444274       11.5091748608
 Cl        11.5136651816        5.6464304871       11.5042411393
 Cl        11.4854979549       17.3534586669       11.4958693913
 Cl        17.3539501099       11.5147990303       11.4887451612
 Cl        11.5094445666       11.5038192269       17.3553582220
