     460
 i =       41, E =     -3656.0793941228
 Cl         5.2222632068       11.7434520018       20.9239684796
 Cl        20.9414099769       27.5378285542       27.5812584814
 Cl         8.4489665233       20.9374988627        8.4577261864
 Cl         5.2771789913       27.4451250746       17.9972999841
 Pb        14.7084799307       21.3034150817       17.9958001265
 Te        14.7106252796       24.5454922378       11.4544855982
 Te        14.6914221195        8.1474092598       21.3194630140
 Pb        21.1954808253       30.9197313343       14.6977278267
 Pb        14.7486983789       24.5355997819       14.7107789763
 Pb        17.9997702089       14.7035120512       21.2965572474
 Cl        27.5409514914       24.2530549426       24.2618425768
 Pb        21.1953879508       21.3025841577        5.0803454620
 Pb         8.1466160606       21.3033693800       11.3711523044
 Te        14.7129037311       21.2846313313       21.2940972231
 Te        14.7306387631       24.5461640141       18.0111310962
 Te        21.2617399655       31.1379227696       18.0144014193
 Pb        21.2149386759       30.9413237431       21.1954942074
 Pb        14.6942843601        8.1283004765       24.6345597010
 Cl        24.2620463568       15.0881477104        5.2240733385
 Te         8.1570846383       21.3002164654       14.6997567027
 Pb        14.7380996303       21.2844654624       24.5221864555
 Pb        14.7411742988       24.5383282843       21.2558773355
 Te        31.1359956702       14.7351824973       18.0046354727
 Te        17.9997472366       14.7245626863       24.5614596895
 Pb        24.6150474646       14.7026387739        8.1204516827
 Te        24.5608971074       14.7065138454       11.4438476935
 Te        14.7143257213       24.5488682706       24.5744472019
 Pb         7.9944167709       21.2796788168       18.0022096960
 Cl        20.9639715630       24.2426435627        5.2232500612
 Te        24.5608915422       24.5562023574       21.2935918512
 Pb        24.5740655542       24.5973165693       24.5841137682
 Cl        24.2559997599       24.2490306112       27.5503888154
 Cl        11.7435911517        8.4496969465       11.7509843532
 Pb        11.3808453183        8.1313239501       14.6928036402
 Cl        20.9227338120       30.7637327216       24.3004290520
 Te        17.9997876649       11.4388058728       14.7369492538
 Te        27.8440211671       21.3026565983       21.3142243425
 Pb        17.9997858509       11.5099921796       17.9904077875
 Te        14.6923241895       21.2945141877       27.8542871584
 Pb        17.9997856076       18.0190253135       17.9810345661
 Pb        24.5742700905       24.6001800217       11.3999257801
 Te        24.5574058370       24.5515377323       14.7197687589
 Pb        14.7020425910       24.6382237717       27.8642739860
 Cl        15.0354546009       30.7769034069       11.7575059060
 Te        17.9997748189       17.9935998433       21.2749288179
 Pb        17.9997689794       18.0096747061       24.4900668695
 Pb        21.2924086670       27.8738482794       11.2505972146
 Pb        27.8590557759       21.3068413172       24.6302219398
 Cl        27.5518873825       20.9351813024       27.5596053191
 Te        21.3124062051       27.8358253610       14.7225912424
 Te        31.1354420377       21.2506607342       18.0052713338
 Te        17.9997437542       17.9852630018       27.8175116323
 Pb        17.9997255839       17.9955723842       30.9237382612
 Pb        14.7054716060       14.7001626862       17.9955150868
 Pb        17.9997886437       21.3072061006       21.2883419056
 Cl        15.0776345477       24.2361830417       30.7918786505
 Pb        17.9997820477       21.2809097596       28.0129476692
 Te        31.1359908300       17.9954090049       21.2649132510
 Pb        24.5967721121       21.3244082947        8.1321002580
 Cl        27.5438029547       11.7377122672       24.2623168062
 Te        14.7129041287       14.7074673905       21.2926131259
 Cl        27.4488712163       18.0155883910        5.2815587857
 Pb        11.3513372049       18.0147947988        5.0880090515
 Te        11.4739092530       17.9865833982        8.2007377919
 Pb        11.5265064741       18.0069122551       11.5137206438
 Te         8.1555461451       21.3027766547       21.3140416485
 Pb        27.9418568427        8.0479371113       18.0027193059
 Pb         8.1405162519       21.3070393720       24.6300362213
 Pb        30.9162854974       17.9977237763       24.6685354654
 Te        17.9997603367       11.4386097781       21.2755193534
 Cl         8.4476561523       20.9354490780       27.5594350363
 Pb        17.9996633517       31.0049319908       11.1022218262
 Pb        17.9997399844       11.5194423789       24.4806397167
 Te        11.4464565263       17.9930841973       14.7354509384
 Pb        11.5104788285       18.0024624542       17.9975839983
 Te        11.4456762195       17.9946020397       21.2739716153
 Pb        11.5264750965       18.0043613334       24.4815889399
 Te        11.4744493513       17.9919925391       27.8142280136
 Cl        27.4489024586       30.7185231900       17.9847441460
 Cl        27.5550485979        8.4396588928       20.9431169525
 Cl        24.2397712368       20.9303354940        5.2341775149
 Pb        27.8590619325       11.3699162806       14.6931558334
 Pb        27.9318149499       18.0068035797        8.0535980627
 Pb        24.5144353597       14.7333045397       14.7251795765
 Pb        30.9349922662       14.7673090606       21.2327305317
 Cl        30.7772556289       15.0759964049       24.2567347453
 Pb        11.3408429317       17.9958229340       30.9237878668
 Pb        21.2639778710       11.4761016910       21.2640831373
 Cl        17.9994559835       31.0120959486        8.5796867618
 Pb        14.7847054890       30.9413615585       21.1955139580
 Cl        30.7728808632       20.9174547070       11.7554122505
 Cl        15.0769296063       30.7637748985       24.3004307432
 Pb        24.4730507377       18.0070079710       11.5137873081
 Cl        15.0353932332       24.2423893815        5.2230438487
 Pb        14.8040946299       30.9197452516       14.6977907170
 Pb        21.2923436027       24.7493290744        8.1261147957
 Te        24.5538803016       14.7260241994       18.0055360973
 Pb        24.5164328249       14.7331482137       21.2669028374
 Te        24.5617681301       14.7067657593       24.5686258296
 Pb        14.7710081708       14.7650383441       30.9437386713
 Te        17.9997770531       21.2631340533       24.5612392049
 Pb        11.3513731106       30.9120405881       17.9850147205
 Pb         7.9927924928       17.9986343200       21.2892813555
 Cl        11.7597140927       20.9300713308        5.2340477464
 Pb        11.4027037062       21.3242252319        8.1319908310
 Te        11.4421321489       21.2803110785       11.4484404156
 Te        17.9997495686        4.8546554134       21.2736534519
 Pb        28.0051375685       21.2796049128       18.0023915676
 Te        21.2888742437       24.5455040548       11.4545903911
 Pb        21.2508267963       24.5356020299       14.7107264984
 Pb        24.6228584746       14.6883547912       27.8704837016
 Cl        24.2523879230       15.0730757413       30.7858288980
 Cl        15.0582541443        8.4187436058        8.4622343100
 Te        14.6871162092       21.2773985904        8.1641891991
 Pb        11.4880380405       21.2712407158       14.7287536325
 Te        11.4464591941       21.2645973040       18.0069186991
 Pb        11.4851429527       21.2749505182       21.2667042171
 Cl        30.7754690385       11.7434248720       15.0830079322
 Pb        30.9163028112       11.3315685551       18.0022473450
 Te        21.2689375824       24.5461373194       18.0111976474
 Pb        21.2584283038       24.5382883497       21.2558771562
 Te        11.4744815779        8.1858144536       18.0081726238
 Pb        21.2508137603       21.2893372183       11.4644839600
 Te        17.9997563998       27.8385058292       11.3985049003
 Pb        17.9997863431       27.9999973232       14.5397724062
 Te        11.4386525405       21.2773137863       24.5690209330
 Pb        14.7743619286       21.2329286106       30.9425081616
 Pb        30.9333185776       14.7678087333       14.7699437075
 Te        21.2852634924       24.5488126372       24.5745049510
 Pb        21.2975927383       24.6381451687       27.8642988598
 Te        27.8424616877       21.3001853990       14.6999393308
 Te        17.9997960182       27.8090137932       18.0028586197
 Cl         8.5474430447        5.2693457930       18.0035855804
 Cl        24.2398485947       30.7659137402       15.0698370510
 Pb        11.4831034693       14.7332310144       21.2668664788
 Cl        20.9219441145       24.2361056408       30.7919270053
 Pb        11.3766100069        8.1296535743       21.3116477384
 Te        14.6923306647        8.1457341004       14.7056120161
 Cl        24.2494331127       20.9146529742       30.7853603432
 Cl        14.5034607079       27.5008355807        8.4992589329
 Pb        17.9997207424        5.0736986451       24.6725929521
 Pb        21.2980300054       27.8942949922       24.6194672061
 Cl        30.7224104658       27.4450361604       17.9975427330
 Pb        24.6482498348       30.9119811413       17.9850863044
 Cl        11.7363087691       27.5346513077       11.7592647434
 Te        21.2856944884       21.2825332554       14.7175447255
 Cl        30.7230110908        8.5409834813       18.0024466370
 Pb        24.5740734346       11.4160066496       11.4027061581
 Te        17.9997590600       21.2386172840       31.1465411071
 Cl        11.7417026702       11.7351383289       27.5511751257
 Pb        11.4027530298       27.8680104928       14.6756793182
 Te        21.2854592387       11.4296734974       24.5703981083
 Te        27.8068901439       17.9948326715       24.5318054633
 Te        17.9997290173       21.2049295875        4.8672743342
 Cl         5.2771549444       18.0024182637        8.5549225461
 Pb        21.2149861788       14.8046626199        5.0587214564
 Te        21.3111783806       14.6659289703        8.1573442496
 Pb        27.9418192337       17.9972201994       27.9521571064
 Cl        27.5360491624       24.2527125659       11.7474215895
 Te        11.4739370388       27.7993128618       18.0133458754
 Pb        27.8528857569       21.3034800300       11.3713360945
 Cl        24.2494492956        5.2147280794       15.0853654124
 Pb        21.2584370888       14.7441990713       11.4617605713
 Te        21.2866717894       14.7059157377       14.7154731670
 Pb        27.8529009391       24.6287941531       14.6966860217
 Te        24.5609145988       11.4309625519       14.7228443916
 Pb        11.3808411315       21.3073838072       27.8686669970
 Cl        11.7417397189        8.4489301759       24.2650118131
 Cl        15.0769311697       11.6995657730        5.2363146215
 Pb        24.6586530246        5.0762038134       18.0044025472
 Cl        24.2524635729        5.2142425038       20.9269436534
 Pb        21.2940966652       14.7001466562       17.9955269125
 Te        21.2866333514       14.7074228986       21.2926397997
 Pb        21.2252000489        5.0575108460       14.7672332952
 Pb        17.9988056602       24.8977902118        4.9951054178
 Cl        11.7500837829       20.9148482462       30.7852556627
 Pb        14.7068990695       24.7494447815        8.1262778417
 Te        27.8069064963       11.4682847659       18.0051843321
 Pb        14.7016280505       11.3805119243        8.1057712481
 Te        14.7143330503       11.4255494942       11.4512332637
 Te        27.8064203776       17.9947268954       11.4827488352
 Te        21.3123431657       21.2774437301        8.1642535085
 Pb        21.2639620316       14.7359696859       24.5239587174
 Te        21.3080501237       14.6805888714       27.8526991496
 Pb        17.9998196465       18.0602761123        5.0840268929
 Cl        24.2631842536       24.2407754049        8.4654470350
 Pb        30.9306248288       21.2283145767       14.7718318021
 Pb        24.5115014123       21.2712601267       14.7288439544
 Cl        30.7223885147       18.0027246121        8.5550481867
 Pb        14.8040027212       21.3019221498        5.0802767528
 Te        17.9997800076       14.7251316878       18.0064710500
 Pb        14.7381103416       11.4778322201       14.7156526134
 Te        14.7315083508       11.4384071411       18.0086515217
 Cl        27.5564837494       15.0607085003        8.4524141442
 Pb        27.8573848450       14.6919331559       11.3682910602
 Cl        30.7728955228       24.2447142269       15.0827269767
 Pb        21.2283656555       14.7649475048       30.9437708542
 Pb        27.8573745214       24.6317496843       21.3082362857
 Te        27.8440260035       14.6859033404       14.6973905985
 Te        24.5250397229       17.9918341810       27.8143165794
 Te        17.9998059801       27.7949689429       24.5489498941
 Cl        11.7362662180       24.2406965639        8.4653529987
 Pb        11.4251555793       24.6000976785       11.3998661002
 Te        11.4421497251       24.5515626328       14.7196593754
 Pb        11.5265114244       24.4863288456       17.9930362310
 Te        11.4386920397       24.5562806350       21.2934770095
 Te        17.9998074077       31.1327759840       14.7950812782
 Pb        17.9998174309       30.9160332982       17.9397304146
 Te        17.9996903368       11.4620358775       27.8162994853
 Cl         8.4476629726        8.4405493412       15.0647847251
 Pb        21.2284335849        5.0562963074       21.2351223428
 Cl        20.9202935869        5.2139679836       24.2642226680
 Pb         8.0576977598        8.0480084887       18.0027313340
 Pb        28.0067684053       14.7106841458       18.0015396517
 Pb        11.4255452544       24.5974432181       24.5840162140
 Cl        11.7435874381       24.2491720080       27.5502799620
 Cl         8.4444871904        8.4397659970       20.9431101363
 Te        14.7306318527       17.9888559055       11.4538889367
 Cl        11.7375708354       30.7760368019       20.9119546215
 Te        17.9998119012       31.1320895442       21.3084507644
 Pb        17.9998533444       30.9139644376       24.6588457184
 Te        24.5531028591       21.2645476110       18.0070243295
 Cl        11.7597910948       30.7659646073       15.0697744130
 Pb        14.7190117732        7.9843135998       18.0018402589
 Te        11.4377261188       14.7068799556       24.5685667170
 Pb        17.9996655865       11.3275237571       30.9263857332
 Te        17.9997775764       17.9969241650       14.7266680634
 Pb        11.3765539848       14.6885362407       27.8704367072
 Cl         5.2231466403       15.0760609481       11.7538167469
 Pb        21.3051329701       11.3654945299       27.8718198831
 Cl        17.9999240953       30.7071522966       27.4907388930
 Pb        14.7084769277       18.0042178302       14.6966402689
 Cl         8.4634864119       24.2526920353       11.7472420675
 Pb        24.5144293534       21.2748670133       21.2668012287
 Te        27.8445342233       14.6864243282       21.3136267219
 Pb        27.8620477084       14.6899843562       24.6311829108
 Pb        11.3845634176       27.8796803904       21.2974253476
 Te        24.5617838737       11.4314373168       21.2932845527
 Te        17.9997673613       24.5530836777       14.7135609253
 Pb        24.5793506175       11.4125549749       24.5874763902
 Cl        20.9640313655       30.7768776189       11.7574752285
 Pb        17.9998167157       24.6684351925       30.9280936205
 Pb        27.8620700200       11.3688643315       21.3100147149
 Pb        21.2910872080       21.3034054317       17.9958544899
 Pb        17.9997964579       24.5316937367       17.9433664905
 Cl        17.9998703292        8.5092676092        5.2929450864
 Pb        30.9156735607       17.9984810722       11.3351911642
 Pb        17.9997092472       21.4602464275        8.0000514418
 Pb         8.1466354778       24.6288131586       14.6965267534
 Te         8.1931447284       24.5174168352       18.0052360808
 Te        31.1354410320       17.9948687331       14.7494283268
 Pb        30.9169419579       17.9969322710       18.0031616665
 Pb        24.4730705160       11.5184128783       17.9957949387
 Cl        27.5505726031       27.5422151976       15.0625021896
 Pb        27.9318391436       27.9464850578       17.9934132678
 Te        17.9997619977       21.2864737607       11.4469666858
 Cl        27.5564723711       27.5476374082       20.9394772869
 Cl        20.9202372365       11.7358739093       30.7861139735
 Pb        30.9156814372       24.6648916928       18.0017191933
 Cl        15.0776544836        5.2081295253       11.7639552641
 Pb        14.7743834268        5.0575145926       14.7672269496
 Pb         8.1422095209       24.6318710822       21.3080633975
 Cl         8.4586201671       24.2532196594       24.2616599125
 Pb         5.0662552922       14.7677939077       14.7698876282
 Te        21.3072303423       21.2944398787       27.8543463442
 Cl        27.4520956137        5.2692730247       18.0035445820
 Pb         5.0838788702       17.9983481081       11.3350652725
 Cl        30.7754612426       20.9169867757       24.2567120645
 Te        11.4386594892       11.4309803910       14.7228146019
 Cl        27.5549966733       15.0568547710       27.5604038771
 Pb        17.9998946125       11.3411606363        5.0861199509
 Te         4.8635660953       14.7352657579       18.0045654508
 Pb        14.7355525341       11.4761432899       21.2640829462
 Pb         5.0645448410       14.7674601755       21.2326631793
 Pb        17.9997699626       21.3219205655       14.6781289194
 Pb        24.6586047121       17.9955933619       30.9238774915
 Pb        17.9998276726        5.0719387339       11.3316773265
 Cl         8.5506890337       18.0151780705        5.2814438082
 Te        21.2866660104       21.2845843253       21.2941608120
 Cl         5.2266707482       24.2447586839       15.0825205134
 Te        14.7140111006       11.4297259850       24.5703703046
 Pb        14.6942498879       11.3655639804       27.8718001251
 Te        17.9997799143       21.2733941559       18.0031236243
 Te        14.7378874065       31.1379562738       18.0144059646
 Cl        11.7388825791       27.5302602515       24.2729290331
 Cl         5.2222484796       15.0762226673       24.2566528575
 Pb        17.9998584244       27.9556765325       27.9437961680
 Cl        27.4520499700       17.9963220046       30.7308181172
 Cl        20.9227367728       11.6995871641        5.2363440533
 Te        14.7138462491       21.2825436646       14.7174762404
 Pb        14.7020447119        8.1357242573       11.3619111191
 Cl        15.0790905959       11.7359360175       30.7860772799
 Pb        21.2980440561       11.3805909619        8.1057420633
 Te        17.9998293810       14.6915521509        4.8679797209
 Cl        24.2560034520        8.4497067421       11.7510122659
 Te        21.2617160188       17.9856974484        4.8621412474
 Pb        21.2639682545       18.0351871734        7.9832823082
 Te         4.8641145205       17.9948826423       14.7492973046
 Te        14.7408320834       17.9886346489       31.1452782659
 Pb        17.9998233244       14.7525873533        7.9842478124
 Pb         5.0826162006       17.9970112693       18.0030287222
 Te         4.8635630549       17.9955545132       21.2647715841
 Te         8.1926338442       17.9950132588       24.5316772787
 Pb        21.2639916005       28.0167615197       17.9648664311
 Pb        14.7355359458       14.7360283080       24.5239373712
 Cl        17.9961908320       27.4203238020        4.9879455922
 Pb        24.6187273000        8.1313266361       14.6928095407
 Te        24.5250729572        8.1857633373       18.0082028500
 Cl        24.2632254367       27.5346226072       11.7592998502
 Te        21.2689302425       17.9888843407       11.4539324653
 Pb        17.9998036409       28.0158215813       21.2474312687
 Cl        30.7229784799       17.9974084301       27.4591171227
 Cl        15.0601278444        8.4342518912       27.5658557658
 Pb        28.0067634184       17.9985035352       21.2894073354
 Pb         5.0832365233       17.9979817857       24.6683846218
 Cl         5.2765104524       17.9978524848       27.4589677336
 Pb        14.7189778568       17.9982941632       28.0157348511
 Te        21.2852716220       11.4255661361       11.4512537109
 Te        17.9997989146       14.7303209156       11.4530040695
 Pb         5.0838892088       24.6649823527       18.0015061300
 Cl        30.7764362301       15.0761507226       11.7538833437
 Pb        24.6229165285        8.1295705750       21.3116614665
 Te        14.7408773316        4.8547706739       18.0115135566
 Pb        24.5968190394       27.8679989303       14.6757224168
 Te        24.5256563150       27.7992572485       18.0134080650
 Pb        17.9998507205        8.0562223172        8.0444224902
 Cl        27.5505290026       20.9376837073        8.4578972105
 Cl         8.4586265927       11.7382681781       11.7469352615
 Pb         8.1405204588       11.3699245071       14.6931480161
 Te        17.9997911810       24.5470673305       21.2697135766
 Te        14.6913673760       14.6806591905       27.8526670835
 Te        11.4456815773       14.7260734962       18.0054884810
 Te        24.5256313999       17.9866972585        8.2008177416
 Pb        17.9998281133       11.5336370012       11.5028908742
 Te         8.1926469334       11.4683619879       18.0051508055
 Te        14.7278512178       17.9927580492       18.0072925733
 Pb        14.7069651141       27.8738339445       11.2506663073
 Te        17.9998032861        8.1799272576       11.4941142004
 Pb         8.1374609434       11.3689913144       21.3099951244
 Cl         8.4490158521       27.5422646756       15.0623430483
 Pb        24.6150274589       27.8795915051       21.2974988606
 Pb        14.7054656222       18.0045712285       21.2998895240
 Pb        17.9997917583        7.9870979732       14.7191919673
 Te        17.9997768590        8.1825478043       18.0148388530
 Cl         8.4556779518       11.7378762455       24.2622717108
 Pb        14.7486847526       21.2892329452       11.4644140638
 Pb         7.9944148779       17.9977522532       14.7203644162
 Pb        17.9997721351        5.0763209317       18.0045411750
 Cl         5.2240885804       20.9172149850       24.2565107499
 Cl        24.2576884112       11.7349988688       27.5512292195
 Cl         5.2231448365       24.2462973174       20.9238217799
 Pb        17.9997620926        7.9839937480       21.2925171593
 Pb         8.0677543176       27.9465669909       17.9932351952
 Te        24.5573900623       21.2803300810       11.4485583724
 Te        24.5531017351       17.9930699664       14.7355286728
 Te        14.7314940359       17.9914517378       24.5616426205
 Cl        20.9414117566        8.4187901711        8.4622504333
 Te        17.9997305383        8.1837835212       24.5380644991
 Pb        17.9996870908        8.0431746131       27.9569268203
 Te        14.7378619844       17.9855080880        4.8621039691
 Pb        11.5264901880       11.5184561763       17.9957839936
 Cl        20.9219657691        5.2081329110       11.7639846300
 Pb        21.2614805402       21.2844069651       24.5222369280
 Cl        17.9998910762       27.4358076205       30.7475972261
 Cl         8.4431065318       27.5477398353       20.9393148221
 Cl        27.5409600080       11.7383010053       11.7469699080
 Te        14.6871820263       27.8358308572       14.7226000000
 Pb        24.4730552743       24.4862883446       17.9931145161
 Pb        21.2975944262        8.1357714456       11.3619203520
 Te        21.3072372164        8.1457263544       14.7056366837
 Cl        17.9996746148        8.5333312030       30.7358306474
 Cl        30.7772713154       11.7433192820       20.9240002191
 Te        11.4377423053       11.4315180789       21.2932443370
 Cl        11.7469759610       15.0732710004       30.7857586930
 Pb        24.4890812979       18.0024248942       17.9976518748
 Pb        14.7355781445       18.0351052214        7.9832862255
 Cl        11.7388955378       11.7270111492        8.4698559932
 Pb        14.7356049998       28.0167916468       17.9648769949
 Cl        17.9998854664        5.2524225008        8.5643055416
 Pb        21.2805448855        7.9842951060       18.0018561223
 Te        21.3081054915        8.1473664496       21.3194938678
 Pb        21.2251795637       21.2328337652       30.9425609350
 Te        27.8064279053       24.5173373188       18.0054231544
 Pb        11.4255542618       11.4159320734       11.4027051371
 Pb         8.0677304715       18.0065668842        8.0534828961
 Te         8.1894201488       17.9930697268       18.0069722912
 Pb        14.7710748039        5.0563356394       21.2351152279
 Te        24.5609063699       21.2772015479       24.5691326375
 Pb        21.3051685407        8.1282447528       24.6345831268
 Cl        20.9392441979        8.4342020949       27.5658917659
 Pb        30.9333128281       21.2300915346       21.2323446911
 Cl        11.7500998316        5.2147561754       15.0853553108
 Pb        11.3408888402        5.0762536175       18.0044030602
 Pb        24.6187213974       21.3072042637       27.8687789042
 Cl        15.0791462745        5.2140070007       24.2641953419
 Pb        17.9997954205       14.7117052367       14.6928647752
 Pb        11.4201154206       11.4126851866       24.5874538331
 Pb        17.9997077104       14.7075851381       28.0160747913
 Cl        11.7375868189       15.0878966750        5.2240551470
 Te        21.3111627060       27.8427075763       21.3341263087
 Cl        24.2607192445       27.5301761286       24.2729965389
 Pb         8.0576639720       17.9975378211       27.9520232238
 Te         8.1931358837       17.9946801803       11.4826258155
 Te        14.6884260646       27.8427499195       21.3341132618
 Pb        14.7016132264       27.8943563099       24.6194649711
 Pb        21.2614908038       11.4778387935       14.7156401339
 Te        21.2680477785       11.4383824554       18.0086708390
 Cl        30.7764287489       24.2461660113       20.9240313604
 Pb        24.6482191620       18.0151199303        5.0880934522
 Te        17.9996797981       14.7264590802       31.1454138364
 Cl        11.7470483482        5.2143112546       20.9269327669
 Cl        24.2620304798       30.7759768917       20.9120179998
 Pb        21.2910860820       18.0042232462       14.6966614257
 Te        21.2717091362       17.9927322483       18.0073382953
 Te        21.2586547873        4.8547494992       18.0115344544
 Te        17.9997690851       17.9971601929        8.1910453108
 Cl         5.2266532912       20.9173649406       11.7552177712
 Cl        24.2577273506        8.4488364409       24.2650503957
 Cl        27.5518957157        8.4405154733       15.0647899267
 Pb        21.2940922002       18.0045290722       21.2999220582
 Te        21.2680325386       17.9913953853       24.5616883419
 Pb        17.9997876123       18.0566685250       11.4683679072
 Pb        28.0051372425       17.9977447274       14.7204841478
 Cl        24.2607324718       11.7271020107        8.4698789766
 Cl         8.4431175701       15.0605265497        8.4523627419
 Pb        17.9996923077       24.6118291264       11.3882082458
 Pb         8.1422204897       14.6918292332       11.3682489452
 Te         8.1555484195       14.6859300385       14.6973344187
 Pb        21.2805099739       17.9982119687       28.0157744193
 Te        21.2586077138       17.9885468852       31.1453214550
 Te        27.8101382219       17.9929906609       18.0070978270
 Pb         7.9927964240       14.7107571407       18.0014818694
 Te        17.9996748106       24.6015140826        8.1615310893
 Cl         8.5507209468       30.7186017689       17.9844925826
 Pb        11.3845848815       14.7024727389        8.1204248742
 Pb        14.7847493062       14.8043512053        5.0587347692
 Te        14.6884426128       14.6658643737        8.1573422659
 Te        17.9997809359        4.8535048727       14.7614972663
 Pb         5.0689216598       21.2283064743       14.7716437667
 Pb        11.4851462973       14.7332866551       14.7251490449
 Te         8.1550013983       14.6865474024       21.3135595354
 Cl        17.9997100006        5.2642650493       27.4667825721
 Pb        17.9998168812       24.4971922150       24.4663975991
 Te         4.8641166836       21.2507471917       18.0050765856
 Cl         8.5473996481       17.9967616294       30.7306885648
 Cl         5.2765421827        8.5410659989       18.0025173766
 Te        11.4386961141       14.7064861517       11.4438144494
 Pb         8.1374403134       14.6901876691       24.6311182172
 Pb        14.7411836529       14.7441205702       11.4617640742
 Te        14.7129077909       14.7059214785       14.7154557430
 Pb         5.0662524276       21.2302404382       21.2321519694
 Cl        21.4954776960       27.5008117525        8.4991319276
 Cl         8.4444362528       15.0571223447       27.5603223977
 Te        17.9997990981       24.5059866171       27.8201059959
 Te        17.9998191541       11.4510679246        8.2051151596
 Cl        15.0582528412       27.5378844607       27.5812448217
 Te        24.5538767095       17.9945212171       21.2740531967
 Pb        24.4730548946       18.0042319254       24.4816657879
 Cl         5.2240934968       11.7434569053       15.0829762749
 Pb         5.0832510043       11.3316475607       18.0022380942
