     608
 i =       85, E =    -23020.8279819693
 Ga         8.9746423565       11.4497612773       17.2778742433
 Ga         8.9850343595       14.4077091203       14.5740851695
 Ga         8.8894379302       14.4050493278       20.0775098116
 Ga         9.0582089167       17.0523007829       11.4378912499
 Ga         9.0547181603       17.1977281443       17.2733219414
 Ga         8.8854349491       17.2667980941       22.8819746344
 Ga         8.8832058871       19.9310555918       14.4044854615
 Ga         9.0555705533       20.0001022548       20.0780129302
 Ga         8.8891078441       20.0835674423       25.7470732754
 Ga         8.8215274997       22.7247312623       17.2746233633
 Ga         9.0540623484       22.8112184903       22.8849108168
 Ga         8.9117456317       23.0433121392       28.5592630708
 Ga         8.8707662681       25.5903707443       20.0774770274
 Ga         9.1342279089       25.7544342097       25.7560923442
 Ga         8.8859097259       28.4720825666       22.9605288055
 Ga        11.5242353306        8.9632236490       17.2161454972
 Ga        11.5405692999       11.5333094693       14.9040728397
 Ga        11.6162610894       11.6063486746       20.0729511817
 Ga        11.9247939220       14.6520632884       11.2806081265
 Ga        11.6798291226       14.4011523545       17.2987920789
 Ga        11.6133772113       14.3985844582       22.8744195363
 Ga        11.5893839346       17.0498830498        8.8870010957
 Ga        11.6848605475       17.2739614986       14.3368135352
 Ga        11.6859254944       17.1894793105       20.0845717414
 Ga        11.6150611303       17.2677234154       25.6878537497
 Ga        11.6096005523       20.0005011252       11.5425901803
 Ga        11.6785281493       20.0096082005       17.1957850026
 Ga        11.6867924691       19.9925365166       22.8806167631
 Ga        11.6032036934       20.0807927549       28.4758604388
 Ga        11.5895667693       22.7971671828       14.3987683714
 Ga        11.6800151984       22.8064001925       19.9924588590
 Ga        11.6785663710       22.8040210993       25.6779713936
 Ga        11.4496592180       23.0405753493       31.1025628964
 Ga        11.5362603765       25.5920975437       17.1974517161
 Ga        11.6193769983       25.5941403201       22.7881886504
 Ga        11.5387398403       25.7265447472       28.4636777565
 Ga        11.5342190272       28.3878260411       19.9988451386
 Ga        11.3536721267       28.2321570199       25.4330998063
 Ga        11.3742949322       31.0149133053       22.8739259808
 Ga        14.4798822224        8.9815002226       14.5642603839
 Ga        14.4788259036        8.8811023822       20.0045645808
 Ga        14.6581318733       11.8571490881       11.2720844718
 Ga        14.4143120410       11.6801679911       17.2974090785
 Ga        14.4045166832       11.6049830021       22.8106614786
 Ga        14.3275360344       14.3238336152        9.0553209308
 Ga        14.4793373876       14.4253655916       14.3931616753
 Ga        14.4169489877       14.4069516971       20.0735829312
 Ga        14.7252669213       14.6655465637       25.3537554551
 Ga        14.4182968340       17.2813175025       11.6161938682
 Ga        14.4325352132       17.2055735437       17.2075610961
 Ga        14.4751511440       17.2024546785       22.8047990059
 Ga        14.3927972823       17.2755063149       28.4561944437
 Ga        14.4115541745       19.9948455626        8.8174166001
 Ga        14.4035458748       20.0674822653       14.3944703746
 Ga        14.4270141155       20.0006706097       20.0001526991
 Ga        14.4096806078       19.9979153745       25.6088597255
 Ga        14.3992358884       20.0899964158       31.1838588315
 Ga        14.3984439332       22.8087015676       11.5987058505
 Ga        14.3998042861       22.8113196217       17.1365262779
 Ga        14.4133788804       22.8020505139       22.7962223336
 Ga        14.3373618992       22.8006223717       28.3821555515
 Ga        14.3314601950       25.5996825513       14.3292908057
 Ga        14.3869736795       25.5970557323       19.9229578442
 Ga        14.3931873526       25.5746203442       25.6013820110
 Ga        14.2497946088       25.7582943233       30.8654665840
 Ga        14.3226823796       28.3931787795       17.1307820212
 Ga        14.3196885850       28.3194223655       22.7156314603
 Ga        14.5674617322       28.2325028460       28.6479775285
 Ga        14.3263320586       31.1125958267       20.0008535858
 Ga        14.4138243158       31.0157250076       25.5118670605
 Ga        17.1269541553        9.0579802520       11.3661647435
 Ga        17.2823158651        9.0590748395       17.2154220600
 Ga        17.2837845900        8.8853158311       22.8727136211
 Ga        17.0516950731       11.5950030632        8.8231959120
 Ga        17.2890378513       11.6783131424       14.3278143343
 Ga        17.2099136418       11.6831719769       20.0677381863
 Ga        17.2784330854       11.6032956103       25.6793917575
 Ga        17.2832907691       14.4114263231       11.6064409947
 Ga        17.2756432906       14.4126761382       17.2049902330
 Ga        17.2727523413       14.4190601760       22.8035254161
 Ga        17.2781062795       14.3937104014       28.4069609731
 Ga        17.2013857848       17.2024118589        9.0439040408
 Ga        17.2175868007       17.2072006059       14.4047751955
 Ga        17.2695742291       17.2031733508       19.9984701562
 Ga        17.2165712504       17.2064166486       25.5889278392
 Ga        17.2098274656       17.2074117101       31.1181042213
 Ga        17.1987981435       20.0700110007       11.6786773243
 Ga        17.2072825121       20.0032477979       17.1976878820
 Ga        17.2143089590       20.0021179937       22.7966196517
 Ga        17.1942058381       20.0055460929       28.3232788025
 Ga        17.2118230607       22.8052195927        8.8730619797
 Ga        17.1939174716       22.8710089777       14.3904056311
 Ga        17.2020803120       22.8022477543       19.9913094925
 Ga        17.2051983949       22.7987647000       25.5901510000
 Ga        17.1955991706       22.8723778716       30.9407832848
 Ga        17.1969780289       25.6643320777       11.5376388476
 Ga        17.1327798030       25.5994236405       17.1259619206
 Ga        17.2005286071       25.5874324591       22.7919714034
 Ga        17.2103860560       25.5995954790       28.3226918074
 Ga        17.1301317605       28.3988487090       14.3320585136
 Ga        17.1257721401       28.3197639675       19.9232193580
 Ga        17.2148708863       28.3274611813       25.6066480348
 Ga        17.0358404318       28.4799700814       31.1006616687
 Ga        17.1901589649       31.1161808950       17.2022083254
 Ga        17.1848783035       30.9462425855       22.7852112769
 Ga        17.1158987953       31.0160460772       28.5555772157
 Ga        20.0099905110        8.8867450817       14.3350022651
 Ga        20.0705746215        9.1187282590       20.0683286861
 Ga        20.1563994321        8.8852776423       25.6793037225
 Ga        20.0052829007       11.6096761616       11.5258336686
 Ga        20.0849440997       11.6815125871       17.1337318304
 Ga        20.0201993324       11.6863868493       22.8803388554
 Ga        20.0862547843       11.6019001539       28.4087155355
 Ga        19.9947512740       14.4070556726        8.8108193994
 Ga        20.0841466397       14.4028436028       14.3317585560
 Ga        20.0806415560       14.4140188591       19.9951091570
 Ga        20.0199692199       14.4109396879       25.5987548061
 Ga        20.0793108533       14.4002120941       31.1769642378
 Ga        20.0722153723       17.1906497559       11.6222094997
 Ga        20.0732747881       17.2009648447       17.1902737473
 Ga        20.0727686180       17.2083455740       22.7977420914
 Ga        20.0039466974       17.1942670895       28.3210011114
 Ga        20.0002524584       20.0013904603        9.0425562884
 Ga        20.0028194355       20.0013762703       14.4063757870
 Ga        20.0137446435       20.0026379940       19.9990378082
 Ga        20.0292722389       20.0098055002       25.5824631506
 Ga        20.0010704135       20.0120830879       30.9405915707
 Ga        19.9883924713       22.8750754669       11.6208318556
 Ga        19.9980677196       22.8026485035       17.1964358529
 Ga        20.0132208695       22.8011531308       22.7982080994
 Ga        20.0722074989       22.8688406121       28.3190792037
 Ga        20.0759932934       25.6728142630        8.8154288278
 Ga        19.9818977627       25.6061759450       14.3388017441
 Ga        19.9979041355       25.5940794712       19.9937676234
 Ga        20.0712148697       25.6055985284       25.5945983554
 Ga        19.9402749719       25.6659866473       31.1117738218
 Ga        20.0034661061       28.4711435184       11.6027041826
 Ga        19.9211668482       28.3204225348       17.1292014431
 Ga        20.0076065243       28.3233886896       22.8028724899
 Ga        19.9351795501       28.4015070790       28.3914552911
 Ga        20.0010798651       31.1810057721       14.4059989539
 Ga        19.9830727549       30.9466532032       19.9922151480
 Ga        19.9208463742       31.1751368671       25.5982692874
 Ga        22.8069279252        8.8835289964       17.2656505142
 Ga        22.8914785707        9.0629702823       22.8829062319
 Ga        23.0428266298        8.8983264243       28.5448991745
 Ga        22.8729521574       11.5950713660       14.3343492882
 Ga        22.8840739023       11.6859548590       19.9930780678
 Ga        22.8679022156       11.6793327397       25.6629133441
 Ga        22.9505973768       11.4499628476       31.0309399508
 Ga        22.8772348737       14.3436092341       11.5344788959
 Ga        22.8793138149       14.4001621111       17.1316234266
 Ga        22.8752027935       14.4154960553       22.7997258657
 Ga        22.7978049858       14.3907935937       28.3730991917
 Ga        22.8019770659       17.2053615878        8.8758294538
 Ga        22.8795155519       17.1310594500       14.3400322866
 Ga        22.8735711314       17.1995672771       19.9905902512
 Ga        22.8685324900       17.2106754627       25.5888788844
 Ga        22.8120010571       17.2214909987       30.9484464195
 Ga        22.8134439897       19.9864193055       11.6790269520
 Ga        22.8139390759       19.9922388950       17.1923165853
 Ga        22.8668568789       20.0142922868       22.8026076758
 Ga        22.8769299347       20.0785733286       28.3169120332
 Ga        22.8041857360       22.7968393447        9.0422148665
 Ga        22.7997775379       22.7979751612       14.4059066977
 Ga        22.8048872620       22.8014474973       20.0030311241
 Ga        22.8801195674       22.8736141750       25.5927091241
 Ga        22.7998774080       22.8072964997       31.1139350808
 Ga        22.7828413562       25.6828007530       11.6122379685
 Ga        22.7985651595       25.5956104892       17.2009505998
 Ga        22.8642585122       25.6108965685       22.8092936929
 Ga        22.8128911378       25.6724813898       28.3942297981
 Ga        22.9454986673       28.6363721907        9.0515564835
 Ga        22.7291328186       28.3890462661       14.4007563831
 Ga        22.8007266816       28.3825450990       20.0123681537
 Ga        22.7975081025       28.4629295297       25.5972443245
 Ga        22.9441819695       31.1859459064       11.5973937061
 Ga        22.7949406689       30.9575115639       17.1952140445
 Ga        22.7242824441       31.1859553579       22.7917920618
 Ga        25.6770259221        8.8839695238       20.0826094650
 Ga        25.8232659401        9.1460091036       25.7668792914
 Ga        25.6748378818       11.5916508636       17.2017948961
 Ga        25.6804084360       11.6807667476       22.8028400637
 Ga        25.5119218010       11.3628140342       28.2946706768
 Ga        25.6799517600       14.3286114455       14.3831541257
 Ga        25.6745869549       14.3974019550       19.9318916984
 Ga        25.6742550896       14.4063482994       25.5936293796
 Ga        25.5945739069       14.4898557563       31.0213219724
 Ga        25.6698793836       17.1886963123       11.5928147642
 Ga        25.6671310037       17.1342427397       17.1336479785
 Ga        25.6644475036       17.2033849372       22.7985511729
 Ga        25.6844433918       17.2871530785       28.3218917292
 Ga        25.5896509189       19.9893558387        8.8869200154
 Ga        25.6163509810       19.9293603418       14.3938168878
 Ga        25.6071071282       20.0016988748       19.9972623789
 Ga        25.6734459477       20.0863101099       25.5959595897
 Ga        25.6694480900       20.0070799870       31.1135440925
 Ga        25.5941345353       22.7785205396       11.6296535599
 Ga        25.5973397156       22.7986335309       17.2057447237
 Ga        25.6677659633       22.8724594286       22.8070552342
 Ga        25.6731089369       22.8763083009       28.3915171869
 Ga        25.6033913035       25.4371932917        8.8173466108
 Ga        25.5935546127       25.6179867230       14.4048895748
 Ga        25.6054861766       25.6642471943       20.0670984040
 Ga        25.6647598575       25.6777965089       25.5988245235
 Ga        25.3504704935       28.7950692220       11.8666254301
 Ga        25.5935961765       28.3938509396       17.2726499818
 Ga        25.5965396361       28.4707841927       22.8043876369
 Ga        25.6774638629       30.9482678629       14.3260322061
 Ga        25.5869010803       31.1891543343       19.9935398372
 Ga        28.5633142813        8.9677731000       23.0448215030
 Ga        28.4731336669       11.5395580595       20.0758050015
 Ga        28.4823120458       11.6042586384       25.7487351886
 Ga        28.4796152005       14.3242606508       17.2070815892
 Ga        28.3934865302       14.3353004015       22.8048648703
 Ga        28.7285792696       14.6474450104       28.2309503920
 Ga        28.4800836726       17.1237219832       14.4045773682
 Ga        28.3897146866       17.1293893940       19.9924947397
 Ga        28.3989812698       17.2780661204       25.5999973345
 Ga        28.6369933861       17.1967402600       31.0133667554
 Ga        28.3816879850       20.0938242200       11.6872794543
 Ga        28.3312726758       19.9212083703       17.1976605856
 Ga        28.3867971232       20.0759400351       22.8026645850
 Ga        28.4747856489       20.0157058976       28.3880324950
 Ga        28.9731452185       22.1350409467        9.1319122484
 Ga        28.3778135161       22.7052331508       14.4120697261
 Ga        28.3838485768       22.8760422400       20.0131943585
 Ga        28.4689784017       22.8739710065       25.5994222038
 Ga        28.5504206110       24.9339679569       11.4365322913
 Ga        28.3243028922       25.6779334292       17.2785766268
 Ga        28.4671690137       25.6757950574       22.7973035926
 Ga        28.1386148027       28.7386232644       14.6556139531
 Ga        28.3923053720       28.4753176817       19.9981112113
 Ga        28.4034347320       31.1789065517       17.0496128255
 Ga        31.1072872017       11.4472949370       23.0505144330
 Ga        31.1934132902       14.3268251801       20.1476692447
 Ga        30.9370427312       14.3134651436       25.7570379162
 Ga        31.1902208497       17.1266138803       17.2863022429
 Ga        30.9582886648       17.1927742836       22.8680747641
 Ga        31.1815425352       17.1185743596       28.4730563489
 Ga        31.1858603334       19.9193635631       14.4938063069
 Ga        30.9605277937       19.9953708449       20.0035086067
 Ga        31.1905550233       19.9986578578       25.5987690066
 Ga        31.2644785468       22.7130804008       11.6060243348
 Ga        30.9572316762       22.7916617469       17.2028563306
 Ga        31.1907332573       22.8072003413       22.7832858151
 Ga        31.0274016584       25.4416100975       14.4052736246
 Ga        31.1842646211       25.6686341075       19.9327129193
 Ga        30.9406108904       28.6378645857       17.1172768575
 As        10.0048241056        9.9857782479       15.6892964323
 As        10.2257778605       13.0108167067       18.6244808330
 As        10.1467749413       15.5118422243       10.0176568210
 As        10.3741258044       15.8163745802       15.8332426895
 As        10.2270162296       15.8426956914       21.4495100266
 As        10.2120644043       18.5346114523       12.9640617542
 As        10.3503818375       18.5974910264       18.6543492234
 As        10.2224932692       18.6768400700       24.2611498610
 As        10.1964849956       21.3299782272       15.8460084859
 As        10.3503281704       21.4027193988       21.4529794520
 As        10.2116009775       21.5251784593       27.0875327678
 As        10.1853074220       24.1358707820       18.6589474582
 As        10.3179867056       24.2260628451       24.2735400275
 As        10.0576896991       24.5535983103       29.9539040711
 As        10.1799852863       26.9978521589       21.4798457395
 As        10.1523656071       27.2509915850       27.2032193900
 As        10.0176366105       29.9288778057       24.4552647582
 As        13.0402704611       10.2217402077       18.6094449833
 As        12.8449351322       12.8224112342       10.1101022732
 As        13.0722005633       13.0605658932       15.8577582076
 As        13.0121930357       13.0170965484       21.4343859991
 As        13.0718231085       15.8218279147       13.0202132618
 As        13.0589930576       15.8158418634       18.6476815570
 As        13.0157447038       15.8549731715       24.2151119061
 As        13.0185523702       18.5573447480       10.1536564958
 As        13.0534023081       18.6044209809       15.8005948150
 As        13.0605622435       18.6068268759       21.4375528592
 As        13.0139551478       18.6724458681       27.0463568113
 As        12.9859888940       21.3853780627       12.9811166851
 As        13.0525597133       21.3945388543       18.5895754036
 As        13.0481404438       21.4176385709       24.2255067577
 As        12.9780299627       21.5090893625       29.8737510505
 As        12.9693874145       24.1926204461       15.7917329728
 As        13.0369228888       24.2033822524       21.3866940997
 As        12.9885809051       24.2588582239       27.0393790565
 As        12.9526243904       26.9961999761       18.5849888837
 As        13.0099487689       26.9682161884       24.1875788986
 As        12.7972157587       27.2537817755       29.8475031922
 As        12.9340668477       29.7955106945       21.4319092975
 As        15.5480520982       10.1189806387        9.9701587835
 As        15.8554848112       10.3821498243       15.8306638077
 As        15.8753769668       10.2170110471       21.4188079321
 As        15.8405434674       13.0329926352       12.9924982905
 As        15.8416678108       13.0608602616       18.6373701025
 As        15.8897201848       12.9708810400       24.1837019091
 As        15.7885773369       15.7867061814       10.2965989463
 As        15.8396403718       15.7974788697       15.8222426962
 As        15.8612074129       15.8066538062       21.4029800323
 As        15.8557745550       15.8513114797       27.0562613705
 As        15.8168075286       18.6300047166       13.0361928716
 As        15.8317845517       18.5902968143       18.6070704115
 As        15.8285531075       18.6121858742       24.2026315664
 As        15.8392645721       18.6794604859       29.8166487114
 As        15.8289200454       21.3691493106       10.1980675585
 As        15.8310060681       21.4140664223       15.7847783172
 As        15.8163283207       21.3969852997       21.3946956436
 As        15.7922025352       21.4183753056       26.9807737764
 As        15.8146652222       24.2225922067       12.9554523409
 As        15.8002890392       24.1774131415       18.5628479180
 As        15.8107730562       24.1944247230       24.1877648163
 As        15.7557615043       24.2508772492       29.6855079667
 As        15.7504326469       26.9979855719       15.7459564174
 As        15.7835521118       26.9493213660       21.3653765796
 As        15.7911058812       26.9829554405       26.9632653241
 As        15.7641723638       29.7776780824       18.5929050592
 As        15.7689036659       29.6400575306       24.1611982962
 As        15.5486955778       29.9473342749       29.9508728563
 As        18.5620911304       10.2111541393       12.9420423630
 As        18.6553386022       10.3763473522       18.6165040224
 As        18.7043100047       10.2185612855       24.2510030089
 As        18.5532573331       13.0111478464       10.1315196721
 As        18.6506363866       13.0462862822       15.7620862285
 As        18.6635669952       13.0412707096       21.4112957756
 As        18.6860468678       13.0154847311       27.0165600891
 As        18.6376073267       15.8180181723       13.0061894310
 As        18.6659705805       15.8054734088       18.5959283169
 As        18.6465851083       15.8265577087       24.1949353641
 As        18.6796041982       15.8291081146       29.8048066598
 As        18.6033016989       18.6101401159       10.3395160045
 As        18.6207123013       18.5934464021       15.8096811421
 As        18.6380698193       18.6002547836       21.4078942644
 As        18.6168212875       18.6114201227       26.9611026474
 As        18.6241832295       21.4478516509       13.0274195340
 As        18.6093052062       21.3964380883       18.5950922102
 As        18.6139584518       21.3989964947       24.1898332731
 As        18.6168468903       21.4415281093       29.6521239454
 As        18.6611749969       24.2316181703       10.1560695943
 As        18.6155480215       24.2150168681       15.7848718866
 As        18.6068432480       24.1913697993       21.3885563865
 As        18.6252164208       24.2100768503       26.9439706570
 As        18.6115868966       27.0298077680       12.9612463622
 As        18.5659745337       26.9435867828       18.5611404415
 As        18.6098150950       26.9568205812       24.1894479107
 As        18.4968689974       27.0160972021       29.7792927601
 As        18.5926542558       29.7891855001       15.7765973109
 As        18.5704111547       29.6419382365       21.3693475166
 As        18.5130689620       29.8120904781       26.9744714573
 As        21.4091881320       10.2046174825       15.7877441835
 As        21.4741094597       10.3743602871       21.4665304157
 As        21.5658275559       10.2161348352       27.0608307182
 As        21.4286905994       12.9793067805       12.9350772690
 As        21.4627872732       13.0398150191       18.5704104933
 As        21.4627245505       13.0523932663       24.2261718703
 As        21.4991177150       13.0068583445       29.8332878213
 As        21.3932035768       15.7976320041       10.1850856326
 As        21.4460998208       15.7960039867       15.7643551437
 As        21.4645212646       15.8099968522       21.3954133637
 As        21.4377876488       15.8182228596       26.9682578113
 As        21.4238188318       18.5857737711       13.0371504665
 As        21.4371608439       18.5993589731       18.6061833777
 As        21.4533550734       18.6147382106       24.1970806870
 As        21.4277214887       18.6310870355       29.6412703864
 As        21.4026275339       21.4080092499       10.3306333455
 As        21.4074973865       21.3979231405       15.7988690364
 As        21.4223047502       21.3934186042       21.4004150805
 As        21.4437156621       21.4393373852       26.9396251369
 As        21.4354181432       24.2195742123       12.9920465426
 As        21.4057926124       24.1936138309       18.5921733224
 As        21.4344252201       24.2060448049       24.1719829540
 As        21.3807123635       24.2292625850       29.7899840684
 As        21.4721376389       27.0751917496       10.1871241961
 As        21.3841432452       26.9591460017       15.7796588731
 As        21.4166647275       26.9685365858       21.3903733562
 As        21.3867325304       27.0460375940       26.9887803716
 As        21.4499886424       29.8629550535       13.0061544413
 As        21.3644180436       29.6587880506       18.5622006664
 As        21.3172507159       29.8232872008       24.1619979183
 As        24.2272448244       10.2139539441       18.6602059460
 As        24.3047220939       10.3365752103       24.2713412087
 As        24.5264168449       10.0503614128       29.9983990973
 As        24.2467942661       12.9667252122       15.7819580051
 As        24.2693658102       13.0548221745       21.3869340506
 As        24.2698540619       13.0511290859       27.0350242001
 As        24.2696803849       15.7528105003       12.9523499030
 As        24.2449185997       15.7971151663       18.5612372278
 As        24.2589948745       15.8161855231       24.2021517838
 As        24.2389682699       15.8452006461       29.6568800534
 As        24.1748217902       18.6238706741       10.2368580364
 As        24.2170254847       18.5591702199       15.7855045775
 As        24.2440089616       18.6001704460       21.4034245593
 As        24.2508996179       18.6521980008       26.9507261584
 As        24.2154993888       21.3894504459       13.0312309947
 As        24.2048944112       21.3982312852       18.5924239760
 As        24.2528304402       21.4486900589       24.1797804045
 As        24.2303028900       21.4110974697       29.7790811109
 As        24.2154613323       24.2328549554       10.2953342634
 As        24.2112909819       24.1977301666       15.7894355254
 As        24.2200323016       24.2061960667       21.3901484744
 As        24.2407972445       24.2635473360       26.9998383200
 As        24.2049458124       27.0178768346       13.0108946204
 As        24.1903832424       26.9877823746       18.6136871512
 As        24.2075443557       27.0532645478       24.1895206569
 As        24.4695802351       30.0815476679       10.1269402639
 As        24.2144761575       29.7043620965       15.7807568137
 As        24.1435106057       29.8482763139       21.3633370409
 As        27.0569833174       10.1941065736       21.5204194330
 As        27.2649230782       10.1781950493       27.2689967903
 As        27.0791898763       12.9544214299       18.6266557581
 As        27.0562777734       12.9918534257       24.2590356747
 As        27.0791996508       15.7393753455       15.7900079673
 As        27.0165220560       15.7719415299       21.4026623327
 As        27.0315719651       15.8487923561       26.9804282624
 As        27.0808550943       18.5641532112       13.0088583666
 As        26.9807192049       18.5516202788       18.6090999302
 As        27.0163456528       18.6537167874       24.1834013171
 As        27.0605368060       18.5868897111       29.7894431978
 As        26.9593142796       21.4113887703       10.2383445307
 As        26.9726754213       21.3585555605       15.8110386712
 As        27.0023999503       21.4409170811       21.3745940435
 As        27.0737509177       21.4450185433       26.9990362172
 As        26.9936139288       24.1288288626       13.0348872058
 As        26.9608157588       24.2317889746       18.6140708548
 As        27.0657174758       24.2605055453       24.1793392798
 As        26.9702667180       27.0039632394       15.8128452001
 As        27.0215015959       27.0678228889       21.3986893938
 As        27.1887675812       29.9138564633       12.8354436370
 As        26.9886365869       29.8689560079       18.5472567108
 As        29.9510912034       10.0886337970       24.5802594478
 As        29.8542247433       12.9342853354       21.5289990586
 As        29.8993629656       12.8627394783       27.2508168639
 As        29.8521927715       15.7448149111       18.6889923423
 As        29.7073412161       15.7731020588       24.2506498211
 As        30.0354042761       15.6329512111       29.9426358691
 As        29.8256254015       18.5561401872       15.8886806982
 As        29.6912397996       18.5956688191       21.4109143212
 As        29.8668520647       18.5762161918       26.9941120498
 As        29.8835656866       21.3901380823       13.0975272863
 As        29.6644855053       21.3958308260       18.5902437157
 As        29.8430023347       21.4054673038       24.1677497301
 As        30.1646789841       24.0451625522        9.9860995405
 As        29.6370498274       24.2034101566       15.8191687913
 As        29.8579909230       24.2305305614       21.3417163299
 As        29.7996185409       27.0621234129       18.5439989934
 As        29.8790622763       30.0384145502       15.5404555286
 Cl         7.7320392227       13.0001935367       15.6684285474
 Cl         7.1814532673       13.5160344228       20.8879628039
 Cl         7.8194903476       15.3115379320       13.0044264262
 Cl         7.7210303442       15.8899659858       18.4956647429
 Cl         7.1856770041       16.3415053543       23.6768384767
 Cl         7.2180021190       17.8054036576       10.7563750452
 Cl         7.7069195874       18.3655015586       15.9500658880
 Cl         7.7076489259       18.7129400245       21.3095960012
 Cl         7.1916263034       19.1192137061       26.4974113520
 Cl         7.1331212512       20.7068890246       13.5636890276
 Cl         7.6713690402       21.1810278528       18.7943862625
 Cl         7.7152128538       21.5044060017       24.1071003138
 Cl         7.0848678101       23.4995451553       16.4056329605
 Cl         7.7042926105       24.0077238396       21.5662452367
 Cl         7.7426578237       24.3835314018       26.8872763096
 Cl         7.1443708631       26.3615773351       19.1780646133
 Cl         7.7350665695       26.8472158858       24.3157142291
 Cl         7.2240564781       29.2908706792       21.9541967099
 Cl        10.7385548920        7.2242874762       18.0960048847
 Cl         7.2340823779       10.6560140300       18.1373241202
 Cl        10.3477711952       12.9488660065       13.3480620217
 Cl        10.3503129182       13.1789800478       24.0455195530
 Cl        10.3751991323       15.9470384926       26.7769861204
 Cl         7.2209193047       22.0132310054       29.2914083268
 Cl        10.7038839667       17.9812443941        7.2187878935
 Cl        10.6970838630       22.0293926219       32.7958010658
 Cl        10.1912477934       23.8435845145       13.2107515278
 Cl        10.1709370639       26.7099482911       16.0416880949
 Cl        10.6807053340       32.7847660092       21.9721556027
 Cl        13.0666718820        7.7212541376       15.6504407724
 Cl        13.6144228393        7.1598336000       20.8196358429
 Cl        12.9873544629       10.3397816225       13.3541449045
 Cl        13.2308476780       10.3248546447       24.0133430072
 Cl        10.2574862011       29.6491440099       18.8806606888
 Cl        13.1713842455       15.6670476892        7.6718677795
 Cl        16.3790051982       16.3374690922       32.8275331607
 Cl        13.6325908861       19.1580369447       32.8927365559
 Cl        13.5727337510       20.8325102235        7.0983504307
 Cl        13.2116737395       23.8859113297       10.2201298492
 Cl        13.1220113433       24.3965454615       32.2646643418
 Cl        13.1028299225       26.7848599311       13.0963220067
 Cl        13.1639867634       29.7427517279       15.9974931045
 Cl        13.1187767196       29.6871755546       26.8187424486
 Cl        13.5351021638       32.8476580778       19.1419805776
 Cl        12.9929524029       32.2629216584       24.4395680330
 Cl        15.3672585606        7.8241316929       12.9837767122
 Cl        15.9693301380        7.7235168971       18.4407854574
 Cl        16.3832886536        7.1727944007       23.6633644027
 Cl        15.9901989141       10.3553356193       26.7942459520
 Cl        15.6691481621       13.1858711308        7.6464101074
 Cl        16.0264862501       13.2246555808       29.6480134047
 Cl        15.9644414966       18.4688044565        7.6781714700
 Cl        15.9847658162       21.5638033059       32.3071130470
 Cl        16.3774034653       23.6220755475        7.1373418415
 Cl        16.0708155893       26.8070959948       10.1698419555
 Cl        15.6785716680       26.8733467210       32.2622945904
 Cl        16.0361531256       29.7415003898       13.1295949582
 Cl        16.3662796231       32.8406697857       16.3485021869
 Cl        15.9021273426       32.2724659281       21.5250330973
 Cl        15.4759916907       32.2581614878       26.9353005275
 Cl        18.4437580179        7.7127111889       15.8921155899
 Cl        18.7677476044        7.7590557626       21.2905400544
 Cl        19.2075126198        7.1973182139       26.4766697175
 Cl        17.9852709533       10.7274123877        7.1484949042
 Cl        18.9156829221       10.3567676551       29.6590316040
 Cl        19.1932058717       13.5937769519       32.8894600093
 Cl        18.4786318369       15.9723338971        7.6801996577
 Cl        18.7581901883       18.7326862891       32.2849598658
 Cl        18.7626208030       21.2659795168        7.6929446944
 Cl        18.4862686319       24.0864000779       32.2971812608
 Cl        19.2585312941       26.4776816533        7.0697320874
 Cl        22.1196397905       29.3564573513        7.2535331020
 Cl        19.1585183178       32.8960592250       13.5596111518
 Cl        18.7156714724       32.2851342043       18.7260715807
 Cl        18.3987788723       32.3272509748       24.0360769598
 Cl        17.9753911707       32.8221398428       29.2080419789
 Cl        20.7932049531        7.1449794373       13.4877432667
 Cl        21.2547950174        7.7340373860       18.7804343296
 Cl        21.5711110351        7.7124363146       24.0906091629
 Cl        22.0216869633        7.2411080758       29.3502845094
 Cl        17.8811356739        7.2109518224       10.7114146892
 Cl        22.0423251228       10.7707086075       32.8064817044
 Cl        20.8345589516       13.5803772218        7.0847040756
 Cl        21.5836962848       15.9532378691       32.3177660954
 Cl        21.2726006460       18.7511485886        7.7042691709
 Cl        21.2731930601       21.2566328153       32.2848736033
 Cl        21.6115202465       24.0922786583        7.6772809949
 Cl        20.8320165304       26.4958819935       32.8125436723
 Cl        18.0379013831       29.3143178127       32.7556675038
 Cl        21.9971484781       32.8650671470       10.7527814733
 Cl        21.5195637231       32.3162208633       15.9482012144
 Cl        21.2119100292       32.3326937419       21.2225442855
 Cl        20.7782348388       32.9100877052       26.3877394150
 Cl        23.5785813320        7.1413285947       16.3970884742
 Cl        24.0773394581        7.7117472365       21.5686232372
 Cl        24.3804649991        7.7643545991       26.9028904498
 Cl        23.9693338001       13.1986275214       10.1417607275
 Cl        23.6611616327       16.4085677435        7.1429047861
 Cl        24.5148947130       13.0740609323       32.2724657411
 Cl        24.0897080588       18.4704998098       32.2802499104
 Cl        24.0892790169       21.5388331017        7.7145851341
 Cl        23.6274510748       23.6318442404       32.8499639414
 Cl        24.6433616660       27.1546892033        7.8763947726
 Cl        23.9492698299       26.8506645070       29.7275218839
 Cl        23.9256849906       29.8400350127       26.7292921798
 Cl        24.3327674284       32.3573606428       13.1940971094
 Cl        24.0236116226       32.3273771561       18.4539200176
 Cl        23.5689477991       32.9238432008       23.5893688425
 Cl        26.4390294674        7.1563730624       19.1805115499
 Cl        26.9188204846        7.7458373926       24.4013523698
 Cl        26.7850074962       10.2280581598       16.0326464623
 Cl        26.8811350451       13.1460009750       13.1151224220
 Cl        26.8944237494       13.1778177109       29.7088477652
 Cl        26.8880027331       16.1932560466       10.1750829791
 Cl        27.0221399382       15.5577310577       32.2554860439
 Cl        26.4824563334       19.1660735937        7.1859922299
 Cl        26.4575873781       20.8477733663       32.8579369060
 Cl        26.7971799342       24.4293046230        7.4200065422
 Cl        26.8431596060       23.9900864573       29.7483208151
 Cl        27.1853694539       26.4981786925       10.2323501919
 Cl        10.2763130099       21.0314713478       10.2700800021
 Cl        26.7847659731       29.8533713854       23.8705046223
 Cl        26.8117756206       32.3570943727       15.6708841109
 Cl        26.4289548061       32.9216060503       20.8033210348
 Cl        29.3347959332        7.2840753109       22.0278923753
 Cl        29.8331421496       13.2300645727       16.0129365806
 Cl        32.8923953729       19.1165825094       13.5938488935
 Cl        29.8342174701       19.9142580275        9.9465724563
 Cl        29.2979849225       21.8433297525        7.0773853589
 Cl        29.2879209266       18.0650851104       32.8144152157
 Cl        29.8422537268       24.0032749304       26.7349402103
 Cl        29.7482283937       26.5510650916       12.8256793073
 Cl        29.8425894466       26.8684490242       23.8630975705
 Cl        32.7997285488       29.2829935871       17.8503823075
 Cl        29.2802351393       32.8504115851       17.9808995802
 Cl        32.8094028810       10.6951592994       22.0555846401
 Cl        32.9198267540       13.5730356585       19.2335779006
 Cl        32.2927625269       13.1529138854       24.3848823103
 Cl        32.9160083172       16.3683704013       16.3821208362
 Cl        32.3186258137       15.9590289465       21.5772049722
 Cl        32.3323852642       15.7430375731       26.8566018259
 Cl        32.3241319556       18.7509068451       18.7407812433
 Cl        32.3373391329       18.5018078582       24.0444843801
 Cl        32.8504563588       18.1197484829       29.2795454475
 Cl        33.0524168711       21.8306680370       10.9396875604
 Cl        32.3224846446       21.5487790632       15.9367954513
 Cl        32.3269438067       21.2830420500       21.2071903071
 Cl        32.9047481999       20.9011475481       26.3890405082
 Cl        32.4015824471       24.3119104292       13.1349750450
 Cl        32.3182132411       24.1098785430       18.3683367971
 Cl        32.9326401411       23.6694109914       23.5533322947
 Cl        32.1472544401       27.0468289419       15.3027907779
 Cl        32.9358998226       26.5067577998       20.7024262008
 Cl        29.7369461733       21.1028306008       29.6951421814
 Cl        21.0247751459       29.7160573680       29.6461285899
 Cl        29.7351341941       29.7572790404       21.0119224528
 Cl        10.3243329173       10.2855748081       21.0990203111
 Cl        13.2551878724       15.9906958511       29.6876477407
 Cl        10.3577468632       18.8482115271       29.6648065432
 Cl        29.7153774194       10.2965125933       18.9007166663
 Cl        23.9463393170       10.2333090416       13.1335733424
 Cl        29.8458296230       16.1577877532       13.1088733349
 Cl        21.0346736409       10.2807400554       10.2412025661
 Cl        18.9452715424       29.7325573236       10.2766347912
 Cl        26.8963390321       26.9116590421       26.7820597778
