     381
 i =       83, E =     -9492.5523322021
 Hg        17.3956172730       23.6318349473       17.4488546383
 Hg        20.5749834708       26.6724681994       17.3599216950
 Hg        23.5604102504       29.4637712721       17.2905285447
 Hg        18.9848335203       27.1128712033        8.1938216665
 Hg         8.6700623663       14.4724788919       17.1575481861
 Hg        11.3670851203       17.4433238851       17.3003626045
 Hg        14.4009232784       20.5120593729       17.4493380139
 Hg        20.4858040976       23.6056141695       20.5340202076
 Hg        23.6656255767       26.6326284002       20.5382203805
 Hg        26.8898820490       28.7610096957       20.2567075700
 Hg        14.1103879338       10.9848611843       14.0831358644
 Hg         8.2001138381       10.8415833823       19.0142725503
 Hg        11.2096145463       14.2200310313       20.4493654090
 Hg        14.3069641514       17.3333501675       20.6213301519
 Hg        17.3871201309       20.5601766368       20.5689777754
 Hg        23.6083663201       23.7279625278       23.7023484762
 Hg        28.1908805304       26.5631604626       23.8138918707
 Hg        17.2903643673       14.2526193286       14.2145264475
 Hg        11.2006285264       16.9258983856       11.3035487317
 Hg        11.2645735854       12.2188482195       23.6239447788
 Hg        14.2769173591       14.3508098222       23.6961398091
 Hg        17.4366302658       17.4757895330       23.5603830912
 Hg        20.5969097351       20.6630999299       23.6738754886
 Hg        25.7354797089       23.6436997225       26.7158429404
 Hg        20.5666638170       11.3638004764       20.6009850035
 Hg        14.2052455000        9.8296856522       26.6194464830
 Hg        17.4544770520       14.2866285026       26.5600793970
 Hg        20.5555909050       17.3925233165       26.6077444438
 Hg        23.7356921830       20.4590305281       26.7488194296
 Hg        23.7580103879       14.2388251686       20.6662075239
 Hg        29.5942246195       17.3292833872       23.7433685643
 Hg        23.5885838655       17.4388822609       17.4600353922
 Hg        23.8166646068        7.7946553767       16.4164820229
 Hg        23.7447905496       23.7569989093       17.3373670230
 Hg        20.6590388024       14.3993267916       29.4006140470
 Hg        23.4880264497       17.1930765969       29.3138292028
 Hg        27.0941624365       19.0198129186       29.8082845557
 Hg        20.6362246998       17.3659791215       14.3655109431
 Hg        20.4152545409       17.4892712879        8.0436467706
 Hg        11.4607871098        8.7671148675       20.1498398136
 Hg        14.4726523881       17.1791666343        8.7048453446
 Hg        23.2188738332       11.5658733380       11.5240783140
 Hg        17.4724984916       20.4093169926        8.0403609673
 Hg        30.0359986934       26.9054677622       18.9274288975
 Hg        24.0096022626       14.0633709553       27.0139156839
 Hg        29.5772401959       20.6778980383       14.2829726071
 Hg        14.6642719207        8.4393180405       23.0250729002
 Hg        14.2386769553       14.2607872863       17.3166738017
 Hg        26.9212536324       21.2197738773       11.2013351113
 Hg        26.6178018704       17.4032258902       20.6193073057
 Hg        17.3853344935       11.3067827346       17.3295108163
 Hg        19.1416892386        7.9530341021       26.9126439642
 Hg        21.1154761258       26.8951835077       11.2334982175
 Hg        20.5444528283       20.5690134491       17.3764241935
 Hg        17.4795239639        8.1784510837       20.3949732344
 Hg        21.3550194329       11.1215865710       26.9275565112
 Hg        11.5496597416       23.2150793766       11.5141859671
 Hg        14.3584902642       25.7427763829       11.2367580451
 Hg        17.8263898082       29.1839656592       11.4431452452
 Hg         8.9689465257       20.2447210493       11.2993053610
 Hg        14.2574501798       23.6446564117       14.2875165336
 Hg        17.4522294008       26.6927975360       14.2720567232
 Hg        20.7373088066       29.6686384070       14.2836974078
 Hg        16.9809669053       11.1894212775       11.2826301783
 Hg         8.1645005473       17.1505008284       14.0667980083
 Hg        11.0142261387       20.5838309289       14.3132657729
 Hg        17.3711687337       26.6568521691       20.6116044272
 Hg        20.1514677059       29.7557526396       20.4072323468
 Hg         8.0557092892       17.4391950480       20.5630696410
 Hg        11.3839171371       20.5845554473       20.5673444236
 Hg        14.1716096318       23.7607682614       20.6752379974
 Hg        20.5571091637       26.9646789991       23.6545016143
 Hg        23.7870775713       30.2445659257       21.5487481257
 Hg         8.7135019392       14.6643913977       23.3813464788
 Hg        11.1874653344       17.5387609379       23.8687089764
 Hg        14.2261233821       20.7206259067       23.7384961134
 Hg        17.2830222033       23.7570729674       23.7479795370
 Hg        23.1982945068       26.4522744595       26.4440552397
 Hg        23.5662143807       20.5704144029       20.5457899571
 Hg        23.2891779506       14.6734763779        8.6959933080
 Hg        23.6425946287       14.2817060400       14.2914082680
 Hg        20.5015652028       14.3988634080       17.4526859460
 Hg        11.5399103508       14.7560520387       26.4351516127
 Hg        14.3340776381       17.3799388171       26.9748384647
 Hg        17.2813605791       20.5426433333       26.5773504085
 Hg        20.4290581788       23.8826500321       26.8050274926
 Hg        28.1990491062       11.4501194272       14.1880896044
 Hg        16.4553145203       14.1904775038       30.2067588041
 Hg        17.6108596275       17.8581870480       29.7517759948
 Hg        20.4608864906       20.6313972649       29.9182276840
 Hg        23.3064461968       23.3816189273       29.2655837647
 Hg        23.6253697998        8.6018958199       20.6432527180
 Hg        23.6865141308       11.4070495442       17.4662685155
 Hg        26.7996699580       26.8701572624       16.8464714603
 Hg        14.2782781076       11.2799338544       20.5255278353
 Hg        10.9638027770       13.9598542001       14.0310996147
 Hg        25.7424666189       14.3790852739       11.2498131733
 Hg        29.1340473391       17.8471416707       11.4298859391
 Hg        23.7651338853       17.5517739040       11.2552787180
 Hg        19.0401831670       11.0022433271        8.1572481773
 Hg        26.9097015576        9.2734695118       17.7540567526
 Hg        26.8842199984       16.8925267679       26.7680806215
 Hg        26.8477652142       11.1340732321       21.2215644014
 Hg        23.5288848948       20.8006910225        8.7294727010
 Hg        26.6182360681       20.6206664883       17.4104860369
 Hg        26.6813688452       14.1599545348       17.3650474663
 Hg        20.5832730141       20.6017050680       11.4199343321
 Hg        29.3596324645       23.4621293923       17.1866247976
 Hg        20.6715314461       14.2055874303       23.7756240153
 Hg        17.4314654878       14.3694837714       20.5561515265
 Hg        29.7969544494       17.6320431252       17.5750893980
 Hg        11.3535707894       28.1539662408       14.1795580873
 Hg        14.9489785473       29.5372571531       14.6357296085
 Hg         7.7650106481       23.7851238169       16.4293415651
 Hg        14.1084060669       26.6575182362       17.3858729953
 Hg        17.5553077340       29.8103644445       17.4806874799
 Hg        20.5659637281       17.4341015170       20.6069591448
 Hg        23.7502809098       20.7169072934       14.2276093793
 Hg         8.2084602396       20.1288075995       17.6110245965
 Hg        11.3945540356       23.6904836547       17.4435291083
 Hg        17.1595610301       29.8177813409       23.9227884451
 Hg         8.6072651123       20.8299207916       23.4992292616
 Hg        10.9000997906       23.9403716660       24.0449803809
 Hg        14.0459526338       26.9847185344       23.9103931559
 Hg        20.2518125743       29.0320291079       26.6673638270
 Hg        29.5827499985       15.0839716023       14.6632616535
 Hg        17.3910748478       11.3461894883       23.8549578805
 Hg        20.4870994644       14.1434928575       11.2112468955
 Hg        17.3389906916       20.6451832669       14.3597882282
 Hg        20.7866838032       23.5365690911        8.7184663971
 Hg        27.1023278899       19.0177428086        8.1942847111
 Hg         8.1580081892       18.9791041789       27.0201808230
 Hg        11.3193139925       20.9909394201       26.7701179581
 Hg        13.9896306186       24.0582497033       27.0328860794
 Hg        16.9517340657       26.8067141396       26.6940809072
 Hg        13.9207188632       13.9066571801       10.8897066056
 Hg        17.4161553709       17.4372374531       17.4130444344
 Hg        11.3128029774       17.7084273450       29.0188207343
 Hg        14.0467507040       20.8362488243       29.8142397905
 Hg        17.1007421781       23.5046218242       29.3401375007
 Hg        17.5162040803       23.7516768554       11.2362714464
 Hg        24.0166393718       24.0524912577       10.9765729047
 Hg        20.6939381687       23.7515369210       14.2485955574
 Hg        14.3036634427        8.3311224386       17.2355324615
 Hg        26.6763736714       23.8608987737       20.6534848322
 Hg        23.9572186183       11.0015633500       23.9227438387
 Hg        26.9948152163       14.0608514746       23.9465080619
 Hg        17.1552094996        8.1381664434       14.0924773057
 Hg        23.7139726959       17.3043387537       23.7526170994
 Hg        23.9281660475       27.0297520561       14.0902644714
 Hg        26.6458707649       17.4879957127       14.2929339304
 Hg        17.1945730590       14.4760404884        8.7060676547
 Hg        20.7857559335        8.6690228487       23.4520110480
 Hg        20.1697580696        8.2334117330       17.5704064146
 Hg        11.0381063357       30.0347408160       19.1170414808
 Hg        26.6529739546       20.5409997390       23.6875812664
 Hg        29.6012904609       22.9296541830       23.3206934411
 Hg        20.5883556256       11.0482218909       14.3168195250
 Hg        29.3547610355       14.5697067349       20.8186605574
 Hg        14.5110264036       29.3424715720       20.7771778834
 Hg        10.9886692493       18.9835336542        8.1590151648
 Hg         8.5848691009       23.5851810974       20.6438819409
 Hg        11.0457323878       26.8566954856       21.3128310131
 Hg        14.2303712729       17.2560255954       14.2217120644
 Hg        14.6443771810       23.2665981257        8.6884232123
 Hg        26.9998418816       23.9675078891       14.0749951539
 Hg        29.1267705779       20.1988911011       26.5735050582
 Hg        14.1074525836       20.4643977153       11.2147655538
 Hg        29.7912507653       20.3791376423       20.4176930894
 Hg        17.4151119035       17.4279037157       11.5057022855
 Hg        20.2693738144        8.9612903207       11.3203760610
 Hg        11.2284122391       11.0828348823       16.8873228040
 Hg         9.2182260142       26.8874044562       17.7786006406
 Hg        17.8165570420       11.0951100678       28.7448450962
 Hg        18.9920244663       27.0196634579       29.8251552529
 Hg        30.0487768619       11.1216487983       19.0991412623
 Se        18.8787134809       25.4238707846       25.2536255853
 Se        22.0164430372        9.7377056533       18.8993878118
 Se        22.2622925650       25.3733242691       15.7491041256
 Se        22.3701298104        9.2811040381       25.3966347843
 Se         9.7250514743       18.9426015396       22.0561667796
 Se        28.2398934279       19.0073094939       15.9022095566
 Se        28.1649299080       15.7782034612       12.6227384174
 Se        19.0518716276       15.8020173977       22.1867022910
 Se        15.8101485957       22.1338320519       12.6639722289
 Se        15.9546948844       19.0417879912        9.7770949444
 Se        25.3989194483       28.7058179544       15.6502189964
 Se        12.8299093734       15.7250269158       28.5323913689
 Se         9.2410285921       25.3541453669       22.4044105422
 Se        12.6341720443       15.8466002860       22.1659036280
 Se        25.4579917397       22.3744982951        9.3393459600
 Se        21.9531289935       25.4376458428       28.5093118473
 Se        25.1723482342       22.1713868844       22.1237675174
 Se        15.6901908235       25.3623323992       22.2367272135
 Se        18.8082966724       28.3692613251       22.1673284992
 Se        15.6917546909       12.5098599001        9.3524924104
 Se         9.7179500149       21.9994421014       18.8791356078
 Se         9.0743771414       28.6160380424       19.6075830494
 Se        22.2731658666       22.2952625542       12.6040703253
 Se        22.3311638658       25.4795060044        9.3528980266
 Se        18.9924413355       28.2875381231       15.8387437613
 Se        18.9303674288       15.8326381795       15.8004049412
 Se        15.7070727919       15.7051632663       12.5818928155
 Se        18.9947960359       19.0010657649       18.9988945300
 Se        12.6054079486       15.6916805610       15.7168057059
 Se        22.4355014827       28.6908781435       12.5890968842
 Se        22.2579993000        9.4814088871       12.8268556376
 Se        15.6925840415       22.3080776191       25.3673848084
 Se        22.0479076031       12.7708577452       15.8567307968
 Se         9.5893839152       19.5638659671       28.9476885994
 Se         9.7121655251       15.9723507827       19.0184066568
 Se        15.7829471282       22.1800253612       19.0571928822
 Se        18.9636926667       25.2151170765       18.9811810890
 Se        25.3485948214       15.7269619518       22.2669515457
 Se        25.4712255155       15.7027922536       28.6553024763
 Se        15.8649535598        9.7104170432       18.9676017604
 Se        19.0119663423       19.0266069548       12.9086977985
 Se        25.2967811937       28.2996009936       22.1887158991
 Se        15.5400706448        9.3627376392       12.4894448868
 Se        21.9933815676       19.0621544994       28.2786177191
 Se        12.5692645700       22.2623498562       22.2630063188
 Se        28.8347034158       12.9138772638       16.0998092629
 Se        28.6338789915       28.8827596814       18.4436252922
 Se        25.3621307503       21.9521519938       28.5457948987
 Se        25.1914738583       15.8467966233       15.8738949907
 Se        18.9099980445       22.1662526008       22.1776860064
 Se         9.6890151949       25.3264909256       15.8203635364
 Se        25.2794619034       25.4738290550       25.0545880783
 Se        15.7667742180       19.0461077279       22.1506261251
 Se        12.5670343846       18.8829949920       12.7314364588
 Se        18.9562499482       12.7868220040       18.9757843592
 Se        18.4456787807        9.0566213543        9.5572394778
 Se        12.5456425131       25.3959265774       19.1506767674
 Se        25.3599591699       18.8505921605       25.3440930777
 Se        15.8094075823       18.9266896895       15.7889474500
 Se        18.9817284289       22.0605069739       28.2234843263
 Se        15.8852321722       28.2315115068       18.8692288796
 Se        22.1129411211       22.1873600527       25.3417956770
 Se        22.2264157463       28.5355968159       25.1421359067
 Se        18.9080736690       12.5918117446       12.7214800458
 Se        19.0170167112       22.2006512447       15.8102426695
 Se        12.6087096245        9.7860587696       22.2317360339
 Se        12.5695300693       21.9479818397        9.4635336533
 Se        19.1707915255       12.5825145883       25.4234902828
 Se        25.1601092138       19.0074334763       19.0099566891
 Se        12.5558375036       28.7160621318       22.3324727612
 Se        28.2173293821       22.0960503685       19.1030952745
 Se        19.1406316152       25.3674819822       12.6333978615
 Se         9.6125464706        8.9215038086       18.3807910687
 Se        16.0467373076       25.3464370913        9.4075174908
 Se         9.0539388013       18.3881734163        9.5739128019
 Se         9.3357822446       12.4867670140       15.6854559026
 Se        28.7035087223       12.5952574161       22.3378057542
 Se        25.3604574950       22.2862659405       15.7445032775
 Se         9.4807378889       16.0182721913       25.4320869298
 Se        28.7067463882       22.4703575000       12.6272082716
 Se        22.0039424665       18.9485441640        9.7211406214
 Se        19.0437665098       15.9748435546        9.7786784734
 Se        15.8499143001       12.6468204829       28.2840275601
 Se         9.3426150168       22.2563847504       25.5017365428
 Se        15.8043814853       19.1465717802       28.3755463108
 Se        15.8511132428       15.9378891711       25.2194581965
 Se         9.4205641216       12.6066420497       21.9486489597
 Se        12.8196195468       28.7981025493       16.0876520047
 Se        18.8725757074        9.7688832728       22.0832102920
 Se        16.1160660033        9.1949791421       25.1524753996
 Se         9.4574498386       22.2394645509       12.8025468120
 Se        12.4520722069       25.5339763191       25.4576537327
 Se        25.4915130943       12.4989680159       25.4766711372
 Se        12.8162206821       18.9471640705       18.9906996099
 Se        12.4949465023       12.4236207616       12.5192127628
 Se        25.3878117480       19.1880517307       12.6248713399
 Se        15.6668687094       25.5044158784       28.6292994348
 Se        28.2547908150       19.0037939282       22.1111594072
 Se        12.9290230034       12.6818679574       25.4521890656
 Se        25.5116246516       25.5416925050       12.5514346902
 Se        29.0183180929       18.4037431411       28.3931139138
 Se        22.1874483075       19.0571922890       15.8046678124
 Se        22.2567763398       12.6175530136       22.2490035121
 Se        18.8558357718        9.6144106325       15.7980210844
 Se        12.5967247251        9.3034282814       15.5557846675
 Se        12.4795222710       22.4929465848       28.5972121792
 Se        25.4052794008        9.3066054652       22.3761499015
 Se        22.2464355204       15.7247579322       25.3836778537
 Se        15.8084780328       25.2197603500       15.8522501329
 Se        22.1520188272       18.9746646103       22.2065473990
 Se        25.3324388143        9.7387129298       15.8108241639
 Se        18.8784178172       15.9686236597       28.2620369365
 Se        15.7248718346       12.6483629970       15.7287524804
 Se         9.3682082603       15.4756689666       12.5033518899
 Se        22.0240508667       25.2416048021       22.1264622958
 Se        25.3012850880       12.5495793822       12.9148581788
 Se        22.1341070656       22.1834213693       18.9264586233
 Se        19.6135595109       29.0309406295        9.6088660964
 Se        12.6392596400       12.6115443577       18.8489497573
 Se        25.3692699328       25.3909765775       18.8765586509
 Se        22.1510239896       15.8152884153       19.0662372016
 Se         9.5942675138       18.8467743318       15.8023968630
 Se        12.7478248982       22.0377507782       15.8455501215
 Se        22.1409685249       15.8448798868       12.6726418764
 Se        28.1656944379       22.2555024344       25.3563151300
 Se        28.2139163320       15.9313227333       18.9075619367
 Se        25.3970442755       12.6129783828       19.1419192559
 Se        19.6439965882        9.3627331273       28.8797327431
 Se        22.0020615050       28.2904508727       19.0793445544
 Se        18.9837454550       19.0292231245       25.1553006911
 Se        28.6412699257        9.1475352430       19.5810239716
 Se        28.6774491615       15.5669637485       25.4049173019
 Se        28.6777964076       25.4470484883       15.6974095272
 Se        12.7549918178       19.0738649816       25.4059329026
 Se        28.8321833497       25.1078827596       21.8978857522
 Se        18.9337802082       22.0050209440        9.7076317783
 Se        18.4074654106       28.9558056404       28.4050577821
 Se        15.4778665865       28.6162116390       25.4790976942
 Se        12.5238591969       25.2974562138       12.8981238887
 Se        15.7432611603       28.1759106400       12.5871924138
 Se        15.8559395614       12.7740602576       22.1568536496
 Se        22.4314703138       12.6432865094       28.7195973488
 Se        25.3645937056       16.0764403700        9.4268526742
 Se        21.9713033685       12.5964124828        9.4679399634
 Se        29.0241156981       19.6430236353        9.6066953445
 Se        12.5140695221       15.6649895285        9.3530077325
 Se        15.8141991270       15.8243581118       18.9505653081
 Cl        25.2108771023       18.7362959511        6.8238362930
 Cl        31.1255399300       16.1158057775       21.9425651804
 Cl        22.0305493545        6.9209373419       21.9631957219
 Cl        25.2078046482       19.3098194713       31.1821293084
 Cl        19.1067120196        6.9630517499       12.8516602503
 Cl        31.4369673235       19.0011667007       19.0036710914
 Cl         7.1399401026       25.1455148161       18.7435782794
 Cl        12.9133785744       31.4369295636       18.9272818129
 Cl        16.1126907148        6.7837996516       16.0696456274
 Cl        31.0231581060       18.8483684322       12.9646403645
 Cl        12.4528987013        9.9406104914       28.1700297243
 Cl         6.7406406267       18.7590594107       25.1522958177
 Cl        21.8527685051       31.6587072406       21.6581283203
 Cl        16.0172120210       31.3981057280       15.9410498837
 Cl        18.7767346466       12.8259845495       30.8332879375
 Cl        15.9942069085        6.5847461090       21.9710380825
 Cl        19.2034067389       25.1428239900       31.2299262261
 Cl        19.1511712701       19.0092312385       31.4470450635
 Cl         6.8359113990       16.0021006805       16.0175809793
 Cl        12.8759506417       19.1973675640        6.7650699606
 Cl        25.1557971819       30.8492406150       19.2644157367
 Cl        19.0195110350       19.0231085012        6.5150159609
 Cl        18.7143192359       25.2212253943        6.8190272430
 Cl        31.1191126606       21.8998492246       16.0782819473
 Cl        18.9298846230       31.4510156727       18.9109309924
 Cl        28.0904457006        9.9020405905       12.4337477204
 Cl         6.8791598549       21.9680158147       21.9211770251
 Cl        31.4465178500       13.0041008035       18.9486339661
 Cl        19.0774051924        6.5613836540       19.1752381189
 Cl         6.3313368189       21.8680337350       16.3399673820
 Cl        18.9622875431        6.5590478575       25.0304282510
 Cl        22.1237866100       22.1178604255       31.2442004295
 Cl        16.0159333210       21.9455041794       31.1583224937
 Cl        25.1854105780        7.1791719893       18.7303863559
 Cl        19.2331209070       12.8991954787        6.7721175216
 Cl         6.5191553631       18.9623687483       19.1411327113
 Cl        19.0711715477       31.0444556217       25.1270524325
 Cl         6.9587752831       19.0672554467       12.8388211196
 Cl         6.8217723966       12.7264352956       19.3038252618
 Cl        16.0041096773       31.1504149125       21.9654036932
 Cl        16.0668080420       16.0645567148        6.9257376429
 Cl        18.8519500190       31.0601597328       12.9569399923
 Cl        28.0749856720       28.1083800690       25.5698722354
 Cl        21.9079333551       31.1547600742       16.1006892326
 Cl        31.4132854954       16.1065616746       16.0197534885
 Cl        31.0185045662       19.1831700996       25.0391428364
 Cl        31.4253624207       21.9089458107       21.9646833881
 Cl        31.4357956566       25.0215979747       19.0669636651
 Cl        16.3695104611       16.1050352452       31.6426756653
 Cl        15.9289715310       22.0657309345        6.7400662850
 Cl        12.8650170289       18.9015785902       31.0244202971
 Cl        21.9656205400       15.9986982726       31.0820142979
 Cl         6.7285017336       15.8459089935       22.1231765334
 Cl        13.0091732032        6.9160273048       19.1383363954
 Cl        22.0871095834       15.9560172486        6.7493361874
 Cl        21.9101156410        6.3484174448       16.3283777277
 Cl        22.0118543096       22.0160343358        6.9356509446
 Cl         9.8047131068       28.0332701248       12.4264019964
