     149
 i =       60, E =     -5207.7916994869
 Zn        12.5571480027       13.6859244166       11.3474023112
 Zn        12.5533689162       11.1983186043       14.2456358484
 Zn        10.4853082165       14.4309045069       14.4819964205
 Zn        15.6855630906       15.7512705968       10.5672264438
 Zn        15.7639268689       13.2046353209       13.4426706663
 Zn        13.5966391699       16.6273566156       13.6752947879
 Zn        15.6751304338       10.8013081613       16.4577745404
 Zn        13.5912754645       13.9957256886       16.7324286138
 Zn        11.5898196783       17.2802833429       16.8777161530
 Zn        18.8862013963       15.3459154363       12.8037174019
 Zn        16.7932270352       18.6417202419       13.0352862669
 Zn        18.8824154417       12.8955646342       15.6825317764
 Zn        16.8816052309       16.1633203307       15.9878423244
 Zn        14.7171653097       19.3743269247       16.1529910767
 Zn        16.7312937203       13.6848131166       18.8841861155
 Zn        14.7106609170       16.8907371801       19.0588063200
 Zn        11.9189288597       10.9578390534        9.0472416081
 Zn         9.6799812320       14.4756002520        9.2906330212
 Zn        11.9197878836        8.5002535869       11.9160123615
 Zn         9.1172101242       11.4370085143       11.9244827123
 Zn         7.6752686587       15.1944870121       12.3976412371
 Zn         9.6810747181        9.2958328311       15.3507088937
 Zn         7.6748239993       12.4801643949       15.5831405907
 Zn        14.7287673038       12.7956820107        8.0927186304
 Zn        12.4746097517       16.3205375237        8.3868133593
 Zn        14.8075612665       10.1529598481       10.8148611020
 Zn        10.2560816603       17.2693096214       11.3414873663
 Zn        14.7215619234        7.9145751481       13.9080524219
 Zn         8.3936564517       17.8312696513       14.5706866229
 Zn        12.4671557513        8.7159017710       17.3597313070
 Zn        10.2490110979       11.7687093102       17.7656587543
 Zn         8.3960442398       15.1107568252       17.7606437783
 Zn        17.6748239030       14.6366672725        7.6803483521
 Zn        15.3535125782       18.2370807697        7.9175346602
 Zn        17.9274277027       12.1626178809       10.0922068274
 Zn        13.3579358485       19.2891672221       10.5708132675
 Zn        17.9156299792        9.7561064259       12.9668695964
 Zn        11.2964374748       20.0755379173       13.6739844616
 Zn        17.5990287011        7.7610244279       15.8379512083
 Zn         9.5965884101       20.3169741684       16.7126410432
 Zn        15.2815387304        8.6266205650       19.3579031631
 Zn        13.2850210851       11.3715008782       19.9880142999
 Zn        11.2874797122       14.5642555883       20.1512820802
 Zn         9.5959958445       17.6017486346       19.8520244865
 Zn        20.7215069243       14.2302492161        9.8346422607
 Zn        18.7142996444       17.7005176283       10.0813850745
 Zn        16.4003391661       20.9673779524       10.2475194254
 Zn        20.9562321972       11.9987385865       12.4723076328
 Zn        14.5649104920       21.9182222360       13.0511858007
 Zn        20.6566933012        9.7700891676       15.1198465203
 Zn        12.6556308975       22.3251806233       15.9358485740
 Zn        18.6445540019       10.6381867272       18.4858277042
 Zn        12.4912734814       20.4021002109       19.5191963104
 Zn        16.3201993037       11.3626227658       21.6847805909
 Zn        14.5564346443       14.3204197432       22.0853695030
 Zn        12.6449193016       17.2113784863       21.9985452687
 Zn        21.9198011938       17.3730456184       12.4933794450
 Zn        19.9141266054       20.5529140285       12.7127492494
 Zn        22.1466742910       15.1108963358       15.1134353427
 Zn        20.2555319638       18.4020615587       15.4286752482
 Zn        18.0038896480       21.5072853826       15.4521678650
 Zn        21.8481234831       12.9529168568       17.8207484351
 Zn        20.2482786016       15.9971203541       18.3097280662
 Zn        18.2365496483       19.1964232528       18.4815851244
 Zn        16.0701563507       21.9208688069       18.3190457073
 Zn        19.8318244482       13.6824969250       20.8788150496
 Zn        17.9970704227       16.6315159604       21.2808410278
 Zn        16.0633212445       19.5141272260       21.1972211430
 Cl        11.8292904624       21.9676636050       20.8278177016
 Cl        16.0560385784       22.8160984658       11.4365669184
 Cl        10.7329548567       15.0927148288        7.4061216315
 Cl        16.0016392483       12.8636513789       23.2886085736
 Cl         7.4603182446       10.3990553584       11.0396764039
 Cl        23.3580994436       13.4355186006       16.2460872749
 Cl         7.6180932085       16.8858612453       19.0873294950
 Cl        17.1315674187       23.2020317911       16.8028071643
 Cl        13.8728918773        7.1578417778       18.4705391675
 Cl        17.1141447319       18.2377641269       22.7250726659
 Cl        13.9302351833       23.5808907824       14.5702124169
 Cl        12.8298199093       11.8017454295        7.1683714924
 Cl        10.7374952677        7.5498608699       16.2890779003
 Cl         6.5644881262       14.0566559023       16.7152907472
 Cl        19.1606593089       14.9832520524       22.5468451851
 Cl        22.2772660609       10.5759236455       13.8124388034
 Cl        15.9384084999        6.4007802674       15.2814896326
 Cl        22.3205888068       13.0635139368       10.8590845995
 Cl        19.2271386539       22.4451923432       13.6434825594
 Cl         6.5663596821       16.5977121268       13.7440517483
 Cl        12.8356676713        6.8047395920       13.0701406314
 Cl        13.9024194471       17.1299216991        6.6556119038
 Cl        16.0035239145       13.8963418748        6.4163147525
 Cl        23.4036598020       15.9054480729       13.2809288249
 Cl        13.9145758442       16.0861089761       23.4763683970
 Cl         7.6276767207       19.4217310302       16.1270356478
 Se        13.9163800427       12.0041943842       12.4198047841
 Se        11.6836416772       15.4996125946       12.6635028661
 Se        11.6764395948       12.7995749148       15.8152054670
 Se        17.1610517552       14.1515144364       11.6315630581
 Se        14.9437015161       17.6373422829       11.8581243938
 Se        17.1438860636       11.5727595751       14.6926952495
 Se        14.9856801817       14.9935454170       14.9475055451
 Se        12.7784226813       18.4106737951       15.1017586009
 Se        14.8909225772       12.3711818544       18.0931004125
 Se        12.7752115291       15.7012713798       18.2703750293
 Se        18.3008197627       17.1848321111       14.2299653214
 Se        18.2907705137       14.6032728213       17.2792179687
 Se        16.1719390764       17.9581562531       17.4601456798
 Se        12.8252926871        8.9802178411        9.8382379058
 Se        10.6208798721       12.5187489862       10.2693171944
 Se         8.3222174574       16.0207035493       10.3359209784
 Se        10.6147550642        9.9556318954       13.2611970393
 Se         8.5082707878       13.2556757607       13.4908564952
 Se         8.3176830718       10.5688617484       16.7131586890
 Se        16.0796947776       11.1248140447        9.0335100099
 Se        13.8627615444       14.6264400684        9.4701056465
 Se        11.5699476108       18.1396555714        9.5264504599
 Se        16.0642992588        8.5568633982       12.1002031989
 Se         9.4008026917       18.9515293682       12.7841411141
 Se        13.8518666633        9.5315408969       15.5150514059
 Se         9.6119245881       16.1929156782       15.9371837659
 Se        11.5420198531       10.1393566380       18.9634586787
 Se         9.4031978353       13.5141921564       19.1539166870
 Se        19.3779810709       13.2154291948        8.2767438074
 Se        17.1347725834       16.7786773248        8.6175064584
 Se        14.8150264515       20.3103084056        8.7285844506
 Se        19.3659465910       10.7146752737       11.3394670239
 Se        12.6746989552       21.0772526549       11.9825475935
 Se        19.3063191170        8.0988372756       14.3384607709
 Se        10.5080101174       21.8577112595       15.2469340970
 Se        17.0763899286        9.0368007490       17.8070630977
 Se        10.7250630181       19.0939073247       18.3997356615
 Se        14.7500087244        9.7393951899       21.2874837443
 Se        12.6560794317       13.1068700287       21.4715587490
 Se        10.5060177432       16.4327528635       21.6289214228
 Se        20.4301691519       16.3419542892       10.9269665421
 Se        18.2661017907       19.7426179012       11.1457545618
 Se        20.3635502529       13.8194312897       13.9944568485
 Se        16.0547619810       20.4842751774       14.3942783031
 Se        20.3845452108       11.2186913588       17.0217559742
 Se        13.9089418041       21.2238644824       17.6337920605
 Se        18.1931866391       12.0141702692       20.3275280385
 Se        16.0531042625       15.3760522171       20.4591561965
 Se        13.9109318367       18.6865990390       20.6252810780
 Se        21.7074101583       19.3954265060       13.5576004292
 Se        21.6594873651       16.8517487250       16.5801080667
 Se        19.5009198835       20.2300072369       16.7336361671
 Se        21.6539842539       14.3275076689       19.6389378720
 Se        19.5021748552       17.6599750754       19.8188470344
 Se        17.3674629651       20.9944151811       19.9933305364
