     381
 i =       29, E =    -10480.8222487190
 Cd        16.3973384456       22.8270949768       16.4056604567
 Cd        19.6909858631       26.0495007950       16.3171409680
 Cd        22.9147312335       29.2109494183       16.0823432703
 Cd        17.1312536592       25.8359785932        7.1031147373
 Cd         6.8023716711       13.0597657336       16.0803634880
 Cd         9.9581797137       16.2939777904       16.3193669678
 Cd        13.1683700685       19.5904413734       16.4098182112
 Cd        19.5901065948       22.8316060334       19.5911012619
 Cd        22.8817769801       26.0347253553       19.4604646090
 Cd        25.8261309106       28.9331863201       18.9290349503
 Cd        12.8238544508        9.6301848731       12.8260199761
 Cd         7.1171752829       10.1448733601       18.8707991813
 Cd         9.9795460986       13.1291326031       19.4528744416
 Cd        13.1674727758       16.3886392816       19.6087336842
 Cd        16.3464088429       19.6477252124       19.6532164976
 Cd        22.8067757611       22.8204921319       22.7678434741
 Cd        26.3223384849       26.3578950225       22.9432561626
 Cd        16.2274851388       13.0286823565       13.0472036438
 Cd         9.6784831942       15.8438867812        9.7021906525
 Cd        10.2405737992       10.1769637603       22.5431419949
 Cd        13.2378534470       13.1851667410       22.8152084268
 Cd        16.4137094651       16.4034777018       22.8265440300
 Cd        19.6099394079       19.6085070494       22.8382160235
 Cd        25.7884042747       22.5399181540       25.7639012005
 Cd        19.7123456861        9.9411831896       19.6914299359
 Cd        13.0815845906        9.6592377452       26.3369949252
 Cd        16.5501200855       13.1101003432       26.0214276935
 Cd        19.6925979762       16.2999814157       26.0452681867
 Cd        22.8602883728       19.4469154380       26.0246356669
 Cd        22.9734288544       13.0506352656       19.7746336769
 Cd        29.2086933397       16.0795341193       22.8863615721
 Cd        22.8407647288       16.4119492658       16.3986531032
 Cd        22.4615355649        6.9798328171       13.6942651860
 Cd        22.9482538606       22.9657661905       16.2016150044
 Cd        19.9375304577       13.0663250099       29.2015714086
 Cd        22.9163066691       16.0700937683       29.1964493233
 Cd        25.8429742897       18.8591225098       28.8859333553
 Cd        19.6041602230       16.3948318955       13.1643317230
 Cd        19.4656241613       16.5049837358        6.7305546158
 Cd        10.2256421738        7.1057602034       18.9109985549
 Cd        13.0837834160       16.0501390794        6.8047309648
 Cd        22.5377454297       10.2162727276       10.2256101702
 Cd        16.4923174203       19.4737761712        6.7343860705
 Cd        28.8852856661       25.8548095626       18.9175206952
 Cd        23.1936256182       12.8307964861       26.3356266788
 Cd        29.1994891078       19.9692678075       13.0832000922
 Cd        13.7523369053        6.9674162324       22.4591977124
 Cd        13.0506489284       13.0252354860       16.2331910188
 Cd        26.3115641894       20.1578588829        9.6846948864
 Cd        26.0586030924       16.3064289685       19.6704585923
 Cd        16.3203760863        9.9527847304       16.3143060728
 Cd        17.1195819111        7.0998227067       25.8364659064
 Cd        20.1084622465       26.3196755702        9.6909905516
 Cd        19.6420404385       19.6513054138       16.3417109268
 Cd        16.5512461121        6.7191002260       19.5149657565
 Cd        20.1588735076        9.6716790606       26.3280516991
 Cd        10.1819360027       22.4961147176       10.2298877590
 Cd        13.4511855408       25.7738582972       10.2277231839
 Cd        17.0814321523       28.8847482610       10.1909188108
 Cd         7.1068819642       18.8693863905       10.2010834209
 Cd        13.1768053012       22.8036623742       13.2279502766
 Cd        16.5297178088       26.0660781514       13.1693951822
 Cd        19.9178591304       29.2055140192       13.0949041484
 Cd        15.8676679132        9.6769751522        9.6929459178
 Cd         6.7962761196       16.0477192539       13.1060347555
 Cd         9.9276570020       19.4371282717       13.1808701594
 Cd        16.2742949516       26.0539688439       19.6768663304
 Cd        19.4761626718       29.2809020077       19.4609114606
 Cd         6.7348722075       16.4908527205       19.5018173751
 Cd         9.9533110143       19.6932426840       19.6901163199
 Cd        13.0330457543       22.9497773553       19.7982866450
 Cd        19.4386585602       26.0717289266       22.8157680002
 Cd        22.4115261485       29.0348520145       22.2607148502
 Cd         7.0413500731       13.6471702798       22.3515013779
 Cd         9.9791342738       16.5515053497       22.8633952455
 Cd        13.0423857625       19.7703856768       22.9689143827
 Cd        16.2282653838       22.9626151341       22.9587014203
 Cd        22.5023125940       25.8152295055       25.7653800572
 Cd        22.8262169368       19.6024783125       19.5875241833
 Cd        22.3348303356       13.6769116466        7.0286020030
 Cd        22.8128817003       13.1966323275       13.2229281165
 Cd        19.6027518193       13.1746045701       16.4063317913
 Cd        10.2391299050       13.4633065800       25.8187501270
 Cd        13.1824041429       16.5402085597       26.0739328465
 Cd        16.3151080681       19.6921130514       26.0411819721
 Cd        19.4431459321       22.8654794938       26.0282752946
 Cd        26.3499744573        9.6737520192       13.0433776456
 Cd        13.7442703995       13.5463779741       29.0281115761
 Cd        16.5417165891       16.4871373520       29.2781236521
 Cd        19.4977582036       19.4910054435       29.2684750301
 Cd        22.3326911033       22.3454405366       28.9625974567
 Cd        22.9526733550        6.8018269606       19.9220718375
 Cd        22.8924581622        9.9823658360       16.5291749015
 Cd        26.3246311861       26.3643662101       15.8659091969
 Cd        13.1885084349        9.9228665584       19.4655680756
 Cd         9.6657360818       12.8054764211       12.8440652448
 Cd        25.7943784020       13.5047821686       10.2194357786
 Cd        28.8896661130       17.1343489559       10.1750642114
 Cd        22.8517573176       16.5607707013        9.9581007259
 Cd        18.8616026153       10.1614135265        7.1049102218
 Cd        25.8467186797        7.1095873171       17.0567714941
 Cd        26.3276034038       15.8745471482       26.3009669159
 Cd        26.3514879950        9.6774904101       20.1000038878
 Cd        22.8914049265       19.9323754556        6.7990178094
 Cd        26.0508389577       19.7236766810       16.3126773159
 Cd        26.0435661702       13.1198064109       16.4993711581
 Cd        19.6855124183       19.6911512441        9.9639321822
 Cd        29.1956810620       22.9602295798       16.0725398635
 Cd        19.8151327821       13.0476909126       22.9540894413
 Cd        16.4166806335       13.1701805956       19.5981642249
 Cd        29.2787127172       16.5154491194       16.4947166021
 Cd         9.6271298936       26.3189135539       13.0522322083
 Cd        13.5255284370       29.0066005256       13.6955167114
 Cd         6.9627248178       22.4084307638       13.7256497312
 Cd        13.0973075366       26.0153146620       16.5350849523
 Cd        16.4686531555       29.2767521749       16.5023722115
 Cd        19.6571314485       16.3567284173       19.6491151446
 Cd        22.9581777366       19.7774534485       13.0360230812
 Cd         6.7197901306       19.4893677516       16.5401073485
 Cd         9.9659196835       22.8819360712       16.5365290288
 Cd        16.0366993475       29.2029315399       22.8924523868
 Cd         6.8010125652       19.9209058164       22.9103928927
 Cd         9.6322872374       23.1767433094       23.1849095198
 Cd        12.8022659304       26.3342070976       23.1671552045
 Cd        18.8729822129       28.8897969613       25.7835473632
 Cd        29.0334510946       13.5841571456       13.6867293463
 Cd        16.5593358945        9.9779881685       22.8865793775
 Cd        19.4434202512       13.1400042227        9.9712365281
 Cd        16.3874758650       19.6025515922       13.1642456160
 Cd        19.9145652938       22.9062517333        6.7989462960
 Cd        25.8350230014       17.1847629607        7.0970526927
 Cd         7.1142326359       17.1389565612       25.8449959173
 Cd         9.6930180110       20.1294731868       26.3230520561
 Cd        12.8217794535       23.1755945219       26.3420117802
 Cd        15.8502359727       26.3222513772       26.3035146574
 Cd        12.8222670522       12.8097744409        9.6669827820
 Cd        16.3486381831       16.3475205359       16.3466479139
 Cd        10.2180470394       17.1029375209       28.8875176490
 Cd        13.1039453317       19.9276287562       29.2039914522
 Cd        16.0722607055       22.9136502702       29.1972346284
 Cd        16.5474175458       22.8485204526        9.9652341811
 Cd        23.1585735176       23.1878728470        9.6510377416
 Cd        19.7664658173       22.9679925177       13.0398665374
 Cd        13.1093596849        6.7891536354       16.0785889737
 Cd        26.0156543631       22.9036142633       19.4570583064
 Cd        23.2003624820        9.6658681049       23.1670562553
 Cd        26.3779178257       12.8207290189       23.1612186093
 Cd        16.0837158662        6.7939562520       13.0924022284
 Cd        22.9804030879       16.2353915570       22.9512542892
 Cd        23.1724343457       26.3721270687       12.8145260909
 Cd        26.0713291258       16.5668163043       13.1506468047
 Cd        16.0659189976       13.0733394332        6.8024518562
 Cd        19.9544538340        6.7994522753       22.9279653911
 Cd        19.5283476217        6.7213230319       16.5195179328
 Cd        10.1407389497       28.8816867068       17.0621870480
 Cd        26.0725570527       19.4689654780       22.8145580183
 Cd        29.0156017360       22.4649178939       22.2728278257
 Cd        19.4622658116        9.9286067453       13.1652073496
 Cd        29.2090266972       13.0890508878       19.8953443948
 Cd        13.0377060633       29.1958059556       19.9150984724
 Cd        10.1543568834       18.8145602039        7.1102073206
 Cd         6.7877043456       22.9140863006       19.9203865363
 Cd         9.6318649383       26.3257288764       20.1242623164
 Cd        13.0349641970       16.2115874493       13.0475249443
 Cd        13.6447866417       22.3224833873        7.0347644766
 Cd        26.3297689438       23.1993016749       12.8222964906
 Cd        28.8843622763       18.9039028684       25.7804930183
 Cd        13.1308690563       19.4343565146        9.9769149500
 Cd        29.2795418479       19.5234026911       19.4609854198
 Cd        16.3026413490       16.3016185356        9.9712613271
 Cd        18.9044112217        7.1150753105       10.1829191008
 Cd         9.7028352603        9.6699427547       15.8873129114
 Cd         7.0573624552       25.8204237812       17.0664575531
 Cd        17.1132854444       10.1615224778       28.8986933946
 Cd        18.8321275738       25.8468718526       28.8862463260
 Cd        28.9261716682       10.1758147605       17.0503356138
 Te        17.8443410800       24.6720839819       24.6385349902
 Te        21.2948308890        8.2358639714       18.0536822712
 Te        21.3817195024       24.6565437594       14.5901769077
 Te        21.6045467763        7.9383752883       24.7446730005
 Te         8.2337082360       18.0513311538       21.2671734693
 Te        27.7835967086       18.1004217805       14.7387045925
 Te        27.8684759653       14.8295033286       11.4739714538
 Te        18.0640256719       14.6906232584       21.3114062899
 Te        14.7284972929       21.2531367272       11.4598637156
 Te        14.7240004543       17.9204984606        8.2362066304
 Te        24.7350037346       28.0949459846       14.4188888135
 Te        11.5184394128       14.7924787397       27.8762463380
 Te         7.9050044451       24.7364263875       21.5781765051
 Te        11.4683511249       14.7320647035       21.2653256000
 Te        24.7274843838       21.5702996299        7.9221449927
 Te        21.1624780081       24.5735958334       27.8413275721
 Te        24.5304737518       21.2470946275       21.2260109567
 Te        14.5993790253       24.6402281195       21.4024510431
 Te        17.9044998410       27.7902074488       21.2329204038
 Te        14.4312874546       11.2400821821        7.9344469627
 Te         8.2312573643       21.2656382487       18.0624879658
 Te         7.9409776234       28.0133919846       18.3391758728
 Te        21.3859308593       21.4001120912       11.3544048727
 Te        21.5365407917       24.7532048295        7.9253868782
 Te        18.0581008045       27.7832611537       14.7528214419
 Te        17.9502332441       14.6852309760       14.6823166626
 Te        14.6000461446       14.5912285471       11.3637602005
 Te        17.9958852176       18.0001242449       17.9961732892
 Te        11.3594048529       14.5872243326       14.6164694642
 Te        21.5431696269       28.0827313067       11.2437338997
 Te        21.2074216718        8.1443077081       11.4827385516
 Te        14.6085900134       21.3972380462       24.6447390151
 Te        21.2363318659       11.4696275402       14.7563759854
 Te         7.9940010234       18.3469036711       28.0599599321
 Te         8.2296844784       14.7135148535       17.9457272135
 Te        14.6813797514       21.3084291493       18.0563117656
 Te        17.9861607579       24.5180065670       17.9997461589
 Te        24.6602723567       14.6163765300       21.3899097149
 Te        24.7634676703       14.4505938389       28.0643216566
 Te        14.7719720153        8.2026861938       17.9368252637
 Te        17.9930957117       17.9971842966       11.4885852626
 Te        24.5620140459       27.7681219033       21.1638828538
 Te        14.4401630051        7.9146431807       11.2547078665
 Te        21.2679535622       17.9396842876       27.7668888775
 Te        11.3471759668       21.3822626374       21.4142551832
 Te        27.7745696116       11.4359968003       14.8006638585
 Te        28.0162378820       28.0558776481       17.6460085078
 Te        24.5582872437       21.1828338693       27.8358682948
 Te        24.5429174121       14.7811879789       14.7443454351
 Te        17.9500305377       21.3104579940       21.3148311729
 Te         8.2256135673       24.5554968542       14.8314760784
 Te        24.5200811006       24.5530460472       24.4002845849
 Te        14.6844931545       18.0449637266       21.3161045904
 Te        11.3263208229       17.8318873315       11.3665485327
 Te        18.0125393289       11.4834393410       18.0021701285
 Te        17.6416654056        7.9498617042        7.9734869897
 Te        11.3436972444       24.6333342338       18.1962431625
 Te        24.6775723930       17.8655716715       24.6320458215
 Te        14.6807490516       17.9454007987       14.6830989473
 Te        17.9420162260       21.2683244775       27.7719015223
 Te        14.6962206044       27.7690197514       18.0467927539
 Te        21.2610966500       21.2690876956       24.5374052082
 Te        21.1780646441       27.8754738580       24.4857573978
 Te        17.8487066787       11.3287665572       11.3577694009
 Te        18.0387195538       21.3130399641       14.6780271428
 Te        11.5252525558        8.1220612287       21.2151574864
 Te        11.4226678997       21.1458977167        8.1590771217
 Te        18.2143296144       11.3627677513       24.6411399295
 Te        24.5202173919       18.0140967484       17.9910948809
 Te        11.2240122728       28.0551945307       21.5694827789
 Te        27.7657197927       21.3041352457       17.9357821126
 Te        18.1327109875       24.6634295841       11.3550555178
 Te         8.0037336726        7.9332262405       17.6609722954
 Te        14.8113569889       24.5467386776        8.1560101112
 Te         7.9391617222       17.6077828451        7.9889951416
 Te         7.9403522772       11.2262804795       14.4496475421
 Te        28.0924359682       11.2594001496       21.5464594707
 Te        24.6369873892       21.4023058507       14.5886351090
 Te         8.1736692477       14.8176203238       24.5702540300
 Te        28.0610368703       21.5976646275       11.2436589220
 Te        21.2442296088       18.0621336968        8.2219982521
 Te        17.9231591523       14.7292931869        8.2328176161
 Te        14.8581517539       11.4129425062       27.7522302523
 Te         7.9216493419       21.5467199755       24.7598184889
 Te        14.7700212754       18.0689820346       27.7923691726
 Te        14.7758175196       14.7645260551       24.5378509520
 Te         8.1737623966       11.4231155407       21.1872254452
 Te        11.3958208510       27.7271525048       14.8197068775
 Te        18.0813285068        8.2357960342       21.2803179980
 Te        14.8663833978        8.2511125545       24.5863656241
 Te         8.1219543629       21.1691112248       11.5051290619
 Te        11.1967832894       24.7832840076       24.7971067903
 Te        24.8129564577       11.2246999757       24.7822787283
 Te        11.4849437031       17.9871218882       18.0090272765
 Te        11.2091542542       11.1923446073       11.2166400600
 Te        24.6588526764       18.1635781356       11.3405444365
 Te        14.4349454309       24.7485423401       28.0680849275
 Te        27.7910534258       17.9430317839       21.2259786781
 Te        11.6107219790       11.4602609154       24.5420150876
 Te        24.7726763223       24.8039518316       11.1961297711
 Te        28.0609635577       17.6587687597       28.0053913512
 Te        21.3094833328       18.0514033182       14.6781217369
 Te        21.4153007823       11.3606687567       21.3856067912
 Te        17.9405946807        8.2083595717       14.7538961553
 Te        11.2630540523        7.9130926989       14.4472491659
 Te        11.2635808254       21.5615091106       28.0756943677
 Te        24.7758189263        7.9467007167       21.5602648394
 Te        21.4197138765       14.6227458107       24.6400571022
 Te        14.7519919332       24.5291075695       14.7628013370
 Te        21.3167245182       17.9591023341       21.3129114603
 Te        24.5864648422        8.2651157780       14.8155946905
 Te        18.0722387122       14.7187002864       27.7644038951
 Te        14.6073583047       11.3424788666       14.6058923472
 Te         7.9310944647       14.4082173711       11.2743895496
 Te        21.2260477857       24.5425193038       21.2284982681
 Te        24.5444090152       11.4858298340       11.5887861147
 Te        21.3032691128       21.3157516231       17.9364590023
 Te        18.3353534549       28.0540566508        7.9743097061
 Te        11.3727223480       11.3205038493       17.8599480711
 Te        24.6324143784       24.6564193671       17.7968012371
 Te        21.3191637530       14.6988068636       18.0454732428
 Te         8.2069113474       17.9095404218       14.7683535915
 Te        11.4550484649       21.2229031973       14.7682804045
 Te        21.2571779625       14.7443038421       11.4544366931
 Te        27.8591303526       21.2183952363       24.4919124345
 Te        27.7729806523       14.7362331585       18.0280471425
 Te        24.6591297546       11.3724165662       18.1661868504
 Te        18.3938598291        7.9685584544       28.0328195842
 Te        21.2645961584       27.7726932346       17.9415201908
 Te        18.0100246126       18.0045020541       24.5139229847
 Te        28.0485956139        7.9812870929       18.3238023381
 Te        28.0880962217       14.4498250225       24.7333702121
 Te        28.0537317479       24.7737203747       14.4177903613
 Te        11.3666153963       18.1432755268       24.6766487899
 Te        27.7342414910       24.6004294613       21.1629762678
 Te        18.0507615259       21.2507458251        8.2249660145
 Te        17.6253758268       28.0615286656       28.0059709424
 Te        14.4104532957       28.0669223056       24.7349749229
 Te        11.4397138645       24.5126972248       11.5963111186
 Te        14.7789689527       27.8463245354       11.4867118945
 Te        14.7784511167       11.4627570362       21.2387053614
 Te        21.5994346651       11.2590613773       28.0665501980
 Te        24.5609598665       14.8499846952        8.1422217650
 Te        21.1756222323       11.4486415835        8.1554403768
 Te        28.0513029269       18.3933479705        7.9641448936
 Te        11.2471828979       14.4190665887        7.9390086516
 Te        14.6894504504       14.6831931369       17.9518011746
 Cl        24.2446315361       18.0577511132        5.4715037301
 Cl        30.5704318814       14.8538133315       21.1288445851
 Cl        21.1823709733        5.4489776208       21.1535615648
 Cl        24.2633807697       17.9668656030       30.5104404054
 Cl        17.9548082273        5.4830358601       11.7288850537
 Cl        30.6497521951       18.0232323146       17.9751079303
 Cl         5.4556855965       24.2539730533       18.0627118151
 Cl        11.6788729704       30.5084553596       18.0588848592
 Cl        14.8433237582        5.4145911441       14.8287055675
 Cl        30.5137330454       18.0929764021       11.7227877541
 Cl        11.4173654283        8.4690123631       27.5081447147
 Cl         5.4884707389       18.0273404765       24.2645079037
 Cl        21.0258545389       30.6395364996       21.0707293497
 Cl        14.9044408567       30.6154800052       14.8915821670
 Cl        18.0818024336       11.7217879185       30.5229293769
 Cl        14.9346001723        5.3656358380       21.0620113706
 Cl        17.9468472306       24.2717803468       30.5193874206
 Cl        18.0162284764       18.0022944051       30.6497696265
 Cl         5.4248276159       14.8043349653       14.8517632692
 Cl        11.7302472993       17.9254674331        5.4795443739
 Cl        24.2639814015       30.5402054482       17.9340831894
 Cl        17.9790987588       17.9911509482        5.3483439867
 Cl        18.0221848406       24.2510346074        5.4814971950
 Cl        30.5635545734       21.2047342353       14.8305334711
 Cl        17.9687519925       30.6525689167       17.9844519016
 Cl        27.5035340019        8.4796252100       11.3701757668
 Cl         5.4343993909       21.1374271309       21.1538216300
 Cl        30.5337634319       11.7407210202       18.0349283546
 Cl        18.0265608308        5.3488285152       18.0036425501
 Cl         5.3594733028       21.0247791207       14.9224631177
 Cl        18.0920499596        5.4804531591       24.2761136145
 Cl        21.0748712942       21.0869388283       30.6137015302
 Cl        14.8479790748       21.1693618374       30.5771454424
 Cl        24.3013504139        5.4895359141       18.0535053282
 Cl        17.9503544479       11.7351071172        5.4802015292
 Cl         5.3510734360       17.9757137522       18.0178754219
 Cl        17.9101737665       30.5217070798       24.2452713112
 Cl         5.4764690563       17.9107586015       11.7458030800
 Cl         5.4838482122       11.7082458959       17.9626971224
 Cl        14.7959562037       30.5661160498       21.1461228683
 Cl        14.8353482591       14.8262666687        5.4301188332
 Cl        18.0287506744       30.5124111408       11.7404546593
 Cl        27.5075249514       27.5466099977       24.5971149527
 Cl        21.1487081086       30.5705385494       14.8437456315
 Cl        30.6354987681       14.9699450739       14.8809055129
 Cl        30.5209014586       17.9632835134       24.2362604744
 Cl        30.6215770762       21.0858076918       21.0737304990
 Cl        30.5135238324       24.3145878802       17.9246767554
 Cl        14.9289294074       14.9407749946       30.6319823026
 Cl        14.9013559794       21.0542184954        5.3885903287
 Cl        11.7554453466       18.0580936783       30.5248761778
 Cl        21.1618664480       14.8454245982       30.5600261826
 Cl         5.3915425746       14.8996155368       21.0860805201
 Cl        11.7556535814        5.4672024036       17.9457115849
 Cl        21.0589949437       14.9274403903        5.3835547360
 Cl        21.0755396027        5.3788447701       14.8931452572
 Cl        21.1368758088       21.1545213568        5.4232426244
 Cl         8.4429274235       27.4858697256       11.3825042457
