     460
 i =       30, E =     -3945.3049897741
 Cl         5.9926231521       12.0802791511       20.9173692389
 Cl        20.9347430761       26.9950225080       27.0417751145
 Cl         8.9987837982       20.9296521489        8.9984701209
 Cl         5.9572047478       26.9189498476       18.0005100795
 Pb        14.9747437399       21.0512485572       17.9794537783
  S        14.9962235052       24.0402229444       11.9597532658
  S        14.9537375053        8.7694477561       21.0546815032
 Pb        20.8858070835       30.0394273203       15.0344463536
 Pb        14.9941493461       24.0905725934       14.9233344986
 Pb        17.9997900365       14.9686225811       21.0314497687
 Cl        26.9665476773       23.9507074197       23.9549828434
 Pb        20.8856727221       20.9656518133        5.9606341622
 Pb         8.8965229381       21.0224433505       11.9007719939
  S        14.9275991756       21.0716305342       21.0810483294
  S        14.9454538731       23.9828576595       18.0128795607
  S        20.9967266332       29.9623223046       18.0165716271
 Pb        20.9033365328       30.0459577253       20.9228495996
 Pb        14.9839014260        8.8739865814       24.0956775527
 Cl        23.9172218460       15.0790915545        5.9934341518
  S         8.7792982470       21.0438113499       14.9561485842
 Pb        14.9729926442       21.0440956594       24.0485699749
 Pb        14.9784036522       24.0667170620       21.0270033192
  S        29.9542507461       15.0027257129       18.0012468144
  S        17.9997729868       14.9301527263       23.9893765740
 Pb        24.0764039819       14.9808973055        8.8703043468
  S        24.0374209234       14.9879288231       11.9639131261
  S        14.9936048738       24.0313822063       24.0611242945
 Pb         8.8604520745       21.0566432024       17.9937487981
 Cl        20.9374019263       23.9258156033        5.9818395455
  S        24.0374488898       24.0361436228       21.0122002723
 Pb        24.0402787739       24.0522260031       24.0509985361
 Cl        23.9514534477       23.9466338537       26.9775455027
 Cl        12.0482002836        9.0225423869       12.0533608366
 Pb        11.9149334933        8.8753644187       14.9840460175
 Cl        20.9187531614       30.0029308114       23.9524776950
  S        17.9997981753       12.0003130351       14.9654024903
  S        27.2205967046       21.0435389554       21.0482755780
 Pb        17.9998091922       11.9913366627       17.9844384677
  S        14.9541576461       21.0360996779       27.2381644091
 Pb        17.9997826497       18.0307665230       17.9693021643
 Pb        24.0284231408       24.0744868298       11.9256153985
  S        24.0342070123       24.0395856335       15.0037245208
 Pb        14.9893159988       24.0934261621       27.1354758038
 Cl        15.0618743512       30.0182417070       12.0743211415
  S        17.9997826913       17.9943033601       21.0753607725
 Pb        17.9997834846       18.0156524419       24.0087194295
 Pb        20.9810328681       27.1628042640       11.7634106305
 Pb        27.1147191885       21.0188681861       24.0886372724
 Cl        27.0043030755       20.9293582963       27.0085758069
  S        21.0536146389       27.2162089677       14.9914828239
  S        29.9532722628       20.9910254625       18.0009575024
  S        17.9997603199       17.9893704217       27.1725299682
 Pb        17.9997369739       17.9955006450       30.0043220257
 Pb        14.9700418135       14.9692769196       17.9904390103
 Pb        17.9997913324       21.0477406704       21.0296430504
 Cl        15.0803785652       23.9047840707       30.0313015697
 Pb        17.9997963971       21.0538093011       27.1617239927
  S        29.9542442786       17.9987955412       20.9973801053
 Pb        24.0568989402       21.0367037627        8.8667729787
 Cl        26.9687233121       12.0446280436       23.9553797996
  S        14.9273856766       14.9218466226       21.0782371355
 Cl        26.9072707684       18.0000272466        5.9495723719
 Pb        11.8810733621       18.0018831939        5.9234530557
  S        11.9284217137       17.9890580352        8.7768106139
 Pb        11.9907079699       18.0134275476       11.9546235132
  S         8.7789589047       21.0436876483       21.0480600639
 Pb        27.2786406304        8.7168128445       18.0015418210
 Pb         8.8848594434       21.0190712906       24.0884333212
 Pb        30.0765552466       17.9998234108       24.1407720450
  S        17.9997821577       12.0107049705       21.0699279203
 Cl         8.9952816390       20.9296568446       27.0083568981
 Pb        17.9996979097       30.0694764772       11.5137828907
 Pb        17.9997569388       11.9775461490       24.0225427093
  S        12.0192838448       17.9936283863       14.9525861791
 Pb        11.9939308641       18.0159618805       17.9840955464
  S        12.0189701314       17.9933588287       21.0615263952
 Pb        11.9822720019       18.0039784769       24.0204193791
  S        11.9304561252       17.9938242868       27.2416698861
 Cl        26.9073594886       30.0505086564       18.0002665875
 Cl        27.0058144629        8.9923799292       20.9346733595
 Cl        23.9103623791       20.9109805299        5.9898615756
 Pb        27.1147172657       11.9115188725       14.9811367481
 Pb        27.2646126264       18.0048372764        8.7097531283
 Pb        24.0383962926       14.9749226059       14.9556230300
 Pb        30.0464050569       15.0808495252       20.9192040553
 Cl        30.0069332441       15.0825870452       23.9199282866
 Pb        11.8583400954       17.9931340829       30.0856220907
 Pb        21.0298050056       11.9511256821       21.0318450115
 Cl        17.9995738262       29.8931900410        9.0134385978
 Pb        15.0962709810       30.0460039170       20.9228471168
 Cl        30.0000167439       20.9164116877       12.0812690874
 Cl        15.0809145707       30.0029990404       23.9524745802
 Pb        24.0087733550       18.0135102498       11.9546997322
 Cl        15.0616924695       23.9255502520        5.9817642836
 Pb        15.1137614938       30.0394480883       15.0344597767
 Pb        20.9809304249       24.2366080625        8.8372110891
  S        23.9805949731       14.9384610042       18.0068112875
 Pb        24.0433321913       14.9709303243       21.0291307198
  S        24.0407048811       14.9890703025       24.0484291977
 Pb        15.0789547869       15.0700892736       30.0564211567
  S        17.9997804066       21.0346902616       23.9997274957
 Pb        11.8811596494       30.0766078451       17.9979509944
 Pb         8.8577439855       18.0036014905       21.0481667968
 Cl        12.0889494496       20.9107248135        5.9897607729
 Pb        11.9424435593       21.0365236327        8.8666771247
  S        11.9652640997       20.9963523123       11.9604174226
  S        17.9997852080        6.0332589239       21.0123357302
 Pb        27.1390757193       21.0565607111       17.9939403512
  S        21.0031977309       24.0402362484       11.9598499036
 Pb        21.0053358751       24.0905779357       14.9233596329
 Pb        24.0870216345       14.9791482434       27.1230348961
 Cl        23.9188392425       15.0752946322       30.0153734637
 Cl        15.0649496062        8.9582064842        9.0050341136
  S        14.9458060222       21.0084768008        8.7838075078
 Pb        11.9717817522       21.0513709733       14.9486249985
  S        12.0192922668       21.0474666193       18.0063718885
 Pb        11.9611608220       21.0445363369       21.0250806299
 Cl        30.0065534759       12.0797074535       15.0854336510
 Pb        30.0765744914       11.8593535274       18.0001547798
  S        21.0540859827       23.9828201958       18.0129787793
 Pb        21.0211742462       24.0666633627       21.0270506561
  S        11.9305051431        8.7583595503       18.0063545135
 Pb        21.0052950392       21.0767100711       11.9094980432
  S        17.9997319639       27.1493105061       12.0394715549
 Pb        17.9997611244       27.1430171822       14.8969034045
  S        11.9584498445       20.9958589909       24.0510582130
 Pb        15.0789795233       20.9165193099       30.0619193451
 Pb        30.0444714388       15.0812532716       15.0752803075
  S        21.0059933022       24.0313065527       24.0612103632
 Pb        21.0103205498       24.0933467860       27.1355320082
  S        27.2201854953       21.0437902847       14.9563486866
  S        17.9997837649       27.1321863057       18.0821576392
 Cl         9.0786201885        5.9482136107       18.0060044764
 Cl        23.9104945310       30.0102299362       15.0891909712
 Pb        11.9562320441       14.9710252553       21.0290622411
 Cl        20.9192313980       23.9046815084       30.0313729999
 Pb        11.9125078990        8.8771360750       21.0208452484
  S        14.9541788084        8.7618498590       14.9640255149
 Cl        23.9192258576       20.9074966224       30.0190660990
 Cl        14.9062118714       26.9856212451        9.0143980215
 Pb        17.9997561430        5.9110307739       24.1503310523
 Pb        21.0150149059       27.1319163803       24.1056124097
 Cl        30.0423548112       26.9188434862       18.0008611055
 Pb        24.1184338307       30.0765346194       17.9980221418
 Cl        12.0455503341       26.9639817208       12.0522114185
  S        21.0703540862       21.0761505228       14.9239317951
 Cl        30.0466245372        9.0796842785       18.0022722906
 Pb        24.0402714405       11.9491393019       11.9478151992
  S        17.9997748703       20.9723692573       29.9772895903
 Cl        12.0466792986       12.0416039466       26.9744339475
 Pb        11.9425438749       27.1333415730       14.9633837250
  S        21.0054509554       11.9494815813       24.0505864785
  S        27.2315624031       17.9974887143       24.0728033341
  S        17.9996534922       20.8968386769        6.0486979449
 Cl         5.9571324663       17.9991661551        9.0811087777
 Pb        20.9032994785       15.0772290289        5.9541089436
  S        21.0491342810       14.9170595406        8.7839733153
 Pb        27.2785872940       17.9983959620       27.2833050351
 Cl        26.9595671352       23.9534119668       12.0467497015
  S        11.9284976947       27.2232485301       18.0108361097
 Pb        27.1029043601       21.0225289883       11.9009490477
 Cl        23.9192619650        5.9810477292       15.0924967227
 Pb        21.0211561390       14.9730378724       11.9333974448
  S        21.0719625542       14.9189653107       14.9284939045
 Pb        27.1029460295       24.0991780671       14.9776395333
  S        24.0411214895       11.9489339514       15.0043145253
 Pb        11.9149070873       21.0161340361       27.1246246217
 Cl        12.0467295963        9.0256821655       23.9585578606
 Cl        15.0809062023       12.0474579599        5.9971231957
 Pb        24.1411974600        5.9143432013       18.0070763125
 Cl        23.9189351506        5.9847053050       20.9247009112
 Pb        21.0295290374       14.9692505222       17.9904780033
  S        21.0721779862       14.9217829793       21.0782872103
 Pb        20.9206097355        5.9380915352       15.0836271727
 Pb        17.9993820141       24.4861536411        5.9305125874
 Cl        12.0803259607       20.9077071104       30.0189405181
 Pb        15.0182521470       24.2365872884        8.8372338749
  S        27.2315804434       11.9273030204       18.0025167380
 Pb        14.9846032660       11.8943692996        8.8681339173
  S        14.9936139789       11.9388658627       11.9687363420
  S        27.2274633372       17.9988208664       11.9315210738
  S        21.0535014625       21.0085902427        8.7838527070
 Pb        21.0297810904       14.9682244064       24.0489521078
  S        21.0457888562       14.9453494477       27.2306791986
 Pb        17.9997210919       18.0298061496        6.0131382910
 Cl        23.9538134677       23.9478777058        9.0361044027
 Pb        30.0411914086       20.9271416164       15.0729955089
 Pb        24.0277008368       21.0513775886       14.9487242809
 Cl        30.0422765468       17.9994716884        9.0812344218
 Pb        15.1136126043       20.9654411691        5.9605882147
  S        17.9997884979       14.9247105706       18.0057763089
 Pb        14.9730082202       11.9514468063       14.9560143330
  S        14.9443238116       12.0113176805       18.0101059490
 Cl        27.0037166555       15.0670998140        8.9980468960
 Pb        27.1095661275       14.9851100208       11.9049115067
 Cl        30.0000458935       23.9188726039       15.0837941361
 Pb        20.9204391510       15.0699975604       30.0564770425
 Pb        27.1095880320       24.0951374896       21.0150757839
  S        27.2205852625       14.9518841430       14.9565054866
  S        24.0690609957       17.9936346692       27.2417986960
  S        17.9998141102       27.2137740751       24.1368893184
 Cl        12.0454430243       23.9477086256        9.0360221944
 Pb        11.9709853879       24.0744292616       11.9255465120
  S        11.9652804069       24.0395890191       15.0036186269
 Pb        11.9907376448       24.0454301202       17.9865172699
  S        11.9621418377       24.0362495603       21.0120790715
  S        17.9997885934       29.9513548861       15.1031694312
 Pb        17.9998031488       29.9869211081       17.9701930343
  S        17.9997126841       11.9202565763       27.2456594090
 Cl         8.9953036469        8.9916060354       15.0705826199
 Pb        20.9205306839        5.9436002759       20.9300642687
 Cl        20.9170915547        5.9826908378       23.9304027438
 Pb         8.7209729676        8.7168954533       18.0015461650
 Pb        27.1418118487       14.9517813697       17.9966018095
 Pb        11.9593228189       24.0523488564       24.0508775794
 Cl        12.0481909484       23.9468126946       26.9774238876
 Cl         8.9937862063        8.9925263833       20.9346717155
  S        14.9454288010       17.9871050563       12.0172066280
 Cl        12.0823404978       30.0067203492       20.9210069205
  S        17.9998074528       29.9508264374       21.0782926585
 Pb        17.9998405015       30.0705886271       24.1622032593
  S        23.9802317669       21.0474047349       18.0064742172
 Cl        12.0890892200       30.0102551785       15.0891221725
 Pb        14.9532896843        8.8451634298       18.0014434448
  S        11.9588329082       14.9892041987       24.0483429501
 Pb        17.9996724534       11.8497661654       30.0890632563
  S        17.9997543422       17.9889450472       14.9757600419
 Pb        11.9124398265       14.9793195706       27.1229425260
 Cl         5.9962498215       15.0841420505       12.0824605677
 Pb        21.0155754452       11.9043557863       27.1261513069
 Cl        17.9998921576       30.0413471377       26.9726769938
 Pb        14.9747276444       18.0205662090       14.9488106212
 Cl         9.0398879425       23.9533521062       12.0465521090
 Pb        24.0384068817       21.0444404750       21.0251994706
  S        27.2206857881       14.9521487684       21.0479070582
 Pb        27.1167889430       14.9820520671       24.0892184382
 Pb        11.9231336144       27.1298468624       21.0191793496
  S        24.0407163851       11.9516414078       21.0109727657
  S        17.9997395678       23.9796069216       15.0158657504
 Pb        24.0443245703       11.9502799782       24.0497700709
 Cl        20.9375654459       30.0182240455       12.0743082299
 Pb        17.9998152998       24.1431595450       30.1141721902
 Pb        27.1168075606       11.9108460172       21.0179562152
 Pb        21.0247931002       21.0512278208       17.9795075781
 Pb        17.9997713407       24.0590988954       17.9423045962
 Cl        17.9998870822        9.0273359951        5.9587374486
 Pb        30.0719113015       18.0022748782       11.8497744540
 Pb        17.9996438269       21.1031216354        8.8570184527
 Pb         8.8965590339       24.0992071264       14.9774569348
  S         8.7720382506       24.0686650285       18.0011498678
  S        29.9532656347       17.9991958898       15.0090695396
 Pb        29.9862963698       18.0049947348       17.9951050612
 Pb        24.0173038001       11.9795691526       17.9962003824
 Cl        27.0006710330       27.0014730488       15.0703445591
 Pb        27.2646930772       27.2903250314       17.9953912504
  S        17.9997308571       20.9841727274       12.0204559183
 Cl        27.0037458022       27.0020023672       20.9331201246
 Cl        20.9170083892       12.0696588140       30.0173874955
 Pb        30.0719534920       24.1503002012       17.9979429678
 Cl        15.0804025502        5.9686930286       12.0953640768
 Pb        15.0790197638        5.9380968377       15.0836273792
 Pb         8.8899724605       24.0952691189       21.0148713495
 Cl         9.0330510054       23.9509121878       23.9547665337
 Pb         5.9550682929       15.0812526310       15.0752136715
  S        21.0454325738       21.0360098926       27.2382378169
 Cl        26.9209679843        5.9481216586       18.0059699397
 Pb         5.9275584819       18.0021476941       11.8496475616
 Cl        30.0065505811       20.9145515640       23.9204619335
  S        11.9584671753       11.9489333053       15.0042877562
 Cl        27.0057503816       15.0652731345       27.0076882058
 Pb        17.9998303875       11.8378079625        5.9294987652
  S         6.0453126136       15.0028078335       18.0011617595
 Pb        14.9697653337       11.9511818786       21.0318105883
 Pb         5.9531464002       15.0810040482       20.9191073792
 Pb        17.9997467515       21.0648227387       14.9352285915
 Pb        24.1411222811       17.9929070147       30.0857548761
 Pb        17.9998422322        5.8858652194       11.8569336630
 Cl         9.0921492135       17.9996056724        5.9494374991
  S        21.0719681032       21.0715630303       21.0811190111
 Cl         5.9994593278       23.9188944614       15.0835632344
  S        14.9940676029       11.9495625932       24.0505514527
 Pb        14.9838521464       11.9044342723       27.1261060638
  S        17.9997668562       21.0242981470       18.0111125722
  S        15.0028639109       29.9623637666       18.0165634080
 Cl        12.0420992246       26.9600407140       23.9683863886
 Cl         5.9926035269       15.0828333056       23.9198316312
 Pb        17.9998520201       27.2926149418       27.3109794307
 Cl        26.9208949264       17.9938954004       30.0519924703
 Cl        20.9187465165       12.0476160206        5.9971393606
  S        14.9291247233       21.0761551413       14.9238654347
 Pb        14.9893310212        8.8645153417       11.9067092763
 Cl        15.0823374670       12.0697512063       30.0173397317
 Pb        21.0150064632       11.8944695018        8.8681531341
  S        17.9997712198       14.9217167576        6.0492500778
 Cl        23.9514509833        9.0225846489       12.0533779435
  S        20.9966461532       17.9835218043        6.0377437489
 Pb        21.0349384599       18.0212186064        8.8429316904
  S         6.0462407916       17.9991991700       15.0089296009
  S        15.0022404541       17.9879597501       29.9677655569
 Pb        17.9997619459       14.9398172665        8.8523459630
 Pb         6.0132348665       18.0050839836       17.9949541967
  S         6.0453026282       17.9989585248       20.9972200042
  S         8.7679722532       17.9977107219       24.0726342883
 Pb        21.0350180849       27.1571317982       17.9788691739
 Pb        14.9697424242       14.9682991832       24.0489045604
 Cl        17.9984392874       26.9865531121        6.1065191187
 Pb        24.0846947942        8.8753605504       14.9840586573
  S        24.0691126236        8.7582957923       18.0063758298
 Cl        23.9539115980       26.9639967626       12.0522425659
  S        21.0540665307       17.9871263912       12.0172580027
 Pb        17.9997937820       27.1477375474       21.0602130192
 Cl        30.0465767033       17.9975979960       26.9204343334
 Cl        15.0667247142        8.9856883384       27.0144066704
 Pb        27.1418091376       18.0034512910       21.0483232040
 Pb         5.9229802224       18.0000910078       24.1405876817
 Cl         5.9529393953       17.9980583298       26.9202530767
 Pb        14.9532378767       17.9986887234       27.1548824129
  S        21.0059895928       11.9388845137       11.9687533714
  S        17.9997811652       14.8902194062       12.0239696675
 Pb         5.9275851840       24.1504084728       17.9977021705
 Cl        30.0032812014       15.0842550559       12.0825329563
 Pb        24.0870845661        8.8770387631       21.0208713408
  S        15.0023074366        6.0322759916       18.0121858376
 Pb        24.0569985327       27.1333192901       14.9634263764
  S        24.0710621487       27.2231777839       18.0108978199
 Pb        17.9998527139        8.6890452574        8.7074763940
 Cl        27.0005577268       20.9298760616        8.9986504640
 Cl         9.0330598593       12.0451276713       12.0492702761
 Pb         8.8848696697       11.9115266225       14.9811104802
  S        17.9998025574       23.9761100659       21.1098127290
  S        14.9536638789       14.9454329683       27.2306230780
  S        12.0189726254       14.9385125230       18.0067420406
  S        24.0709821645       17.9892455461        8.7768883940
 Pb        17.9998083326       11.9714883763       11.9551293992
  S         8.7679959799       11.9273931947       18.0024755693
  S        14.9484412745       17.9970126833       18.0030444935
 Pb        15.0183453500       27.1628104611       11.7634168638
  S        17.9998310894        8.7245190107       11.9430316484
 Pb         8.8827591178       11.9109927826       21.0179045675
 Cl         8.9988938934       27.0015191963       15.0701568483
 Pb        24.0764376972       27.1297539963       21.0192530787
 Pb        14.9700344118       18.0096483989       21.0307682322
 Pb        17.9998222329        8.8383189166       14.9462891075
  S        17.9998130506        8.8275237902       18.0107220804
 Cl         9.0308054905       12.0448475779       23.9553288830
 Pb        14.9941152729       21.0766534908       11.9094452335
 Pb         8.8604442577       18.0062157343       14.9434036847
 Pb        17.9998079817        5.9957207608       18.0045991994
 Cl         5.9930094920       20.9148084462       23.9202312413
 Cl        23.9527526018       12.0414272892       26.9744975784
 Cl         5.9962654662       23.9176703440       20.9157243572
 Pb        17.9997988160        8.8460163189       21.0543090049
 Pb         8.7348713198       27.2904247282       17.9951987708
  S        24.0341857829       20.9963971221       11.9605161398
  S        23.9802233927       17.9936336771       14.9526712068
  S        14.9443021019       17.9900170801       23.9887294918
 Cl        20.9347492410        8.9583051269        9.0050421517
  S        17.9997679198        8.7544311804       24.0798363853
 Pb        17.9997072929        8.7104324149       27.2896647154
  S        15.0027804105       17.9833472750        6.0377019670
 Pb        11.9822879155       11.9796174168       17.9961601388
 Cl        20.9192644994        5.9687092589       12.0953723158
 Pb        21.0265930768       21.0440276238       24.0486335539
 Cl        17.9998957277       26.9024365091       30.0988679102
 Cl         8.9958092107       27.0021265941       20.9329280411
 Cl        26.9665417682       12.0452055227       12.0493018214
  S        14.9459296144       27.2162247218       14.9914795394
 Pb        24.0088002039       24.0453783977       17.9866199873
 Pb        21.0103315545        8.8645495237       11.9067136345
  S        21.0454476854        8.7618422244       14.9640412132
 Cl        17.9996440415        9.0682041675       30.0572495579
 Cl        30.0069434429       12.0801242524       20.9174080567
  S        11.9588445419       11.9517463066       21.0109303623
 Cl        12.0805471274       15.0755049238       30.0152752371
 Pb        24.0056108507       18.0159132928       17.9841820983
 Pb        14.9644768939       18.0210979459        8.8428968473
 Cl        12.0420992818       12.0315123089        9.0401110947
 Pb        14.9645454545       27.1571716026       17.9788559038
 Cl        17.9998878610        5.9011548810        9.0976593112
 Pb        21.0463332319        8.8451332605       18.0014606230
  S        21.0458566817        8.7693937567       21.0547106544
 Pb        20.9205730637       20.9164264064       30.0619875708
  S        27.2274978279       24.0685709037       18.0013651142
 Pb        11.9593319534       11.9490720035       11.9478052604
 Pb         8.7348008298       18.0045953054        8.7096263376
  S         8.8504183330       17.9980160086       18.0020186115
 Pb        15.0790467907        5.9436470597       20.9300488088
  S        24.0411103771       20.9957321551       24.0511790391
 Pb        21.0156244367        8.8739256858       24.0957131954
 Cl        20.9327006530        8.9856227577       27.0144505205
 Pb        30.0444817650       20.9247533732       20.9189105036
 Cl        12.0803598192        5.9810550156       15.0925081817
 Pb        11.8584041748        5.9144094118       18.0070882755
 Pb        24.0846754905       21.0159576960       27.1247574074
 Cl        15.0824213794        5.9827545168       23.9303873672
 Pb        17.9997843084       14.9703996431       14.9523434185
 Pb        11.9551956634       11.9504176475       24.0497034828
 Pb        17.9997334701       14.9457799198       27.1540605654
 Cl        12.0823078902       15.0788352311        5.9933850173
  S        21.0491680338       27.2160885837       21.0830250576
 Cl        23.9575170057       26.9599324546       23.9684498686
 Pb         8.7209225806       17.9987052091       27.2831243828
  S         8.7720118749       17.9987399231       11.9313713347
  S        14.9504007506       27.2161421312       21.0830123537
 Pb        14.9846069889       27.1319848933       24.1055942598
 Pb        21.0265999659       11.9514494624       14.9560290268
  S        21.0552539684       12.0112883915       18.0101261225
 Cl        30.0033061682       23.9174976102       20.9159531364
 Pb        24.1183411910       18.0021544927        5.9235322003
  S        17.9996968658       14.9877609448       29.9668201266
 Cl        12.0806395711        5.9848034899       20.9247122678
 Cl        23.9172609822       30.0066258330       20.9210757293
 Pb        21.0247889767       18.0205706986       14.9488506309
  S        21.0510899603       17.9969785447       18.0031010964
  S        20.9972833898        6.0322480656       18.0121943113
  S        17.9997035778       17.9178649673        8.8678754608
 Cl         5.9994329617       20.9163060405       12.0810609642
 Cl        23.9528088910        9.0255587960       23.9585919844
 Cl        27.0043166703        8.9915800013       15.0705818987
 Pb        21.0295277128       18.0095932464       21.0308225850
  S        21.0552462863       17.9899347433       23.9887930032
 Pb        17.9997420804       18.0577406494       11.9409833648
 Pb        27.1390655727       18.0062082944       14.9435424694
 Cl        23.9575079270       12.0316937531        9.0401194655
 Cl         8.9957832743       15.0668766970        8.9979932405
 Pb        17.9996787888       24.2173501897       11.7826815783
 Pb         8.8899619949       14.9850190036       11.9048518358
  S         8.7789586762       14.9519001026       14.9564292273
 Pb        21.0462846489       17.9985991704       27.1549427952
  S        20.9972195741       17.9878603946       29.9678283498
  S        27.1491161387       17.9979239535       18.0021768358
 Pb         8.8577540351       14.9518636839       17.9965142223
  S        17.9996040672       23.9605618526        8.8507178084
 Cl         9.0922307618       30.0506052833       18.0000746130
 Pb        11.9231037749       14.9807154919        8.8702597448
 Pb        15.0962343122       15.0770851677        5.9540836756
  S        14.9503758788       14.9169437557        8.7839500386
  S        17.9998129118        6.0227486504       15.0277356175
 Pb         5.9582993341       20.9271562602       15.0728032006
 Pb        11.9611563877       14.9749154616       14.9555670284
  S         8.7788659159       14.9523017184       21.0478096074
 Cl        17.9997295721        5.9428492973       26.9318927529
 Pb        17.9998071052       24.0449509406       24.0285541547
  S         6.0462514552       20.9911167135       18.0007515583
 Cl         9.0785602329       17.9943348500       30.0518106352
 Cl         5.9529898376        9.0797584774       18.0022957106
  S        11.9621210841       14.9878804680       11.9638516724
 Pb         8.8827365958       14.9822684940       24.0891067954
 Pb        14.9783911490       14.9729866688       11.9333635318
  S        14.9275938219       14.9189684035       14.9284549990
 Pb         5.9550685936       20.9249144102       20.9187030873
 Cl        21.0926164349       26.9856686210        9.0143378868
 Cl         8.9937107199       15.0655644837       27.0075684375
  S        17.9998237845       24.0570527564       27.2755124454
  S        17.9998132241       11.8631319092        8.7863132550
 Cl        15.0649497952       26.9950931535       27.0417647784
  S        23.9805862757       17.9932513414       21.0616244624
 Pb        24.0172832150       18.0038336563       24.0205199516
 Cl         5.9930278650       12.0797067135       15.0853967543
 Pb         5.9230049202       11.8594255649       18.0001200931
