     608
 i =       68, E =    -18076.3298646011
 Cl         8.6121073038       14.3386092588       17.3214915814
 Cl         7.5437401890       15.2225034354       23.1574244198
 Cl         8.7693566677       16.9356129597       14.3940444892
 Cl         8.4428598929       17.7624956931       20.6874578805
 Cl         7.5345706430       18.4563874461       26.4297826381
 Cl         7.6844985014       19.7712390357       12.2875470528
 Cl         8.4411872580       20.5849941390       17.8502441674
 Cl         8.4588561549       21.0161332586       23.9720070357
 Cl         7.5624308733       21.7228613942       29.6670692402
 Cl         7.5033147690       23.0682627672       15.3690919568
 Cl         8.4314945750       23.8612311690       21.1151600103
 Cl         8.4561994553       24.3145014804       27.2290940314
 Cl         7.5102368243       26.3222525845       18.5973132982
 Cl         8.4280937776       27.1563308185       24.3636754494
 Cl         8.5855644769       27.5788695332       30.4428396808
 Cl         7.5406961243       29.6089297398       21.8095304806
 Cl         8.5954242852       30.3986950257       27.5051386022
 Cl         7.7570040019       32.9774135437       24.9729666539
 In         9.7690726194       12.6572053700       19.1332838711
 In         9.9380501934       16.0186381903       16.2393950561
 In         9.5385304115       16.0921979203       22.4325878015
 In         9.8322074418       19.0465049255       12.7315564491
 In         9.8449619112       19.2825967418       19.3660725304
 In         9.5322559490       19.3749998153       25.7713184888
 In         9.5338571174       22.3507952803       16.1591841447
 In         9.8450271910       22.5121794046       22.5967987509
 In         9.5339950598       22.7296378576       29.0555230267
 In         9.5265475209       25.6261515444       19.4467028304
 In         9.8488534941       25.8311734297       25.8709266949
 In         9.6881667384       26.1017243796       32.3451093297
 In         9.5277692209       28.9160114944       22.7293893910
 In        10.0030711210       29.2105506969       29.2144187524
 In         9.6878805832       32.2701639132       26.0331970978
 Cl        12.0252709126        7.7344102128       20.0048841634
 Sb        10.9347662518       10.8864066057       17.3173123731
 Cl         7.7580945366       11.9316427174       19.9951120015
 Cl        11.5647343501       14.4934291879       14.9924050188
 Sb        11.1350262235       14.3924424342       20.8636899892
 Cl        11.3266308936       14.6303543712       27.0596735301
 Sb        10.9367730920       17.2408584272       10.9697008044
 Sb        11.4257038916       17.6894444097       17.7532683531
 Sb        11.0831211957       17.6457305191       24.1657887235
 Cl        11.3628303887       17.8032267661       30.2039670953
 Sb        11.1422757743       20.8301092348       14.4398449739
 Sb        11.3509986229       20.8979447572       20.9591490743
 Sb        11.0765956109       20.9538787775       27.4511151934
 Cl         7.7394505905       24.9777433456       32.8988683361
 Cl        12.0216168141       19.9257074234        7.7840187953
 Sb        11.0818726861       24.0869163030       17.6934705054
 Sb        11.3106477456       24.1478760212       24.2224886893
 Sb        11.1327939578       24.2779618253       30.6890721303
 Cl        12.0565648884       24.9980388536       37.2657335127
 Cl        11.1645160690       26.8532276411       14.6986929568
 Sb        11.0753047641       27.3312335795       20.9971930754
 Sb        11.3323347351       27.4395061841       27.4880486920
 Sb        10.9184192825       27.8326833158       34.0885325918
 Cl        11.1222312501       30.1773699068       18.0453968893
 Sb        11.1214993845       30.6137228693       24.2371974523
 Sb        11.0437713008       30.9880181001       30.9640127084
 Cl        12.2233226592       37.3265998251       25.0739667679
 Sb        10.9112828469       34.0809083393       27.7472272281
 In        12.7211195299        9.7518226399       19.1311729841
 In        12.8009059552       12.7417692960       16.6347581092
 In        12.7902284228       12.7851059172       22.5091610112
 In        12.9694914752       16.1777360073       12.5035753154
 In        12.8826640545       16.0116984759       19.4562292559
 In        12.7276200377       15.9504460826       25.7736382331
 In        12.7423989891       18.9807428578        9.7639470317
 In        12.8792924536       19.3700884259       16.0034508413
 In        12.8166059399       19.2086305683       22.6513094125
 In        12.7248757286       19.2978583629       29.0693156645
 In        12.8035041329       22.4868703488       12.8047817468
 In        12.8150501905       22.5750895798       19.2313105980
 In        12.8124991698       22.4365225804       25.8636555230
 In        12.7373062619       22.5827752881       32.2716594070
 In        12.7216323910       25.7608563958       16.0179633835
 In        12.8125682201       25.7783679964       22.5025974227
 In        12.8702784080       25.7195257395       29.0709119437
 In        12.6588270822       26.0924892486       35.3140718481
 In        12.6608973454       28.9812781526       19.2944635488
 In        12.8159097745       28.9906706075       25.7148594486
 In        12.6643536401       29.1499172799       32.3391687867
 In        12.7277947653       32.1943189040       22.5285349920
 In        12.4902806270       32.1048438696       28.8970906667
 In        12.6452254058       35.2312181423       25.9542191695
 Cl        14.4049660682        8.5986848110       17.3236003585
 Cl        15.2479662076        7.5439927535       23.1825971252
 Cl        14.5451077479       11.5356034393       14.9849567625
 Sb        14.4141642558       11.1382072775       20.8680885083
 Cl        14.7037436163       11.3316803444       27.0826888105
 Sb        14.0652239186       14.0146534569       11.1644530518
 Sb        14.5329341177       14.5228500012       17.7737298501
 Sb        14.3870659727       14.3605237660       24.1633512837
 Cl        11.3422931784       33.6514701706       21.3691546686
 Cl        14.5767603433       17.3933580428        8.6750032279
 Sb        14.3954655117       17.6290911707       14.4437363637
 Sb        14.4653519577       17.6706603060       20.9964279509
 Sb        14.3109837698       17.6535380592       27.3686021642
 Cl        18.5258193335       18.4715687108       37.4566406972
 Sb        14.3906923912       20.7770849847       11.1850548765
 Sb        14.4492887005       20.9225656018       17.6779859045
 Sb        14.4245198315       20.8788048210       24.1827660564
 Sb        14.3509482331       20.9180987237       30.6522506108
 Cl        15.3190357198       21.7051417357       37.4376635387
 Cl        15.3317077796       23.1416485382        7.5980669127
 Sb        14.3731750454       24.1471947374       14.3942856234
 Sb        14.4090715702       24.1309289756       20.8992417818
 Sb        14.4292959525       24.0985151499       27.4026328139
 Sb        14.3263858182       24.2394721940       33.9082244618
 Cl        14.7333329030       26.8729822755       11.1670272577
 Sb        14.3023153607       27.3822838745       17.6515344432
 Sb        14.4289300353       27.3520486355       24.1303027480
 Sb        14.3219187858       27.4348172723       30.7021954556
 Cl        14.5463639710       27.5830664851       36.4159555259
 Cl        14.5980720322       30.2833035098       14.6368588489
 Sb        14.3250725848       30.6211673095       20.8602802528
 Sb        14.3637506453       30.5854407141       27.4077905740
 Sb        14.0624779867       30.9913608975       33.9372878551
 Cl        14.6879835740       33.7888536169       18.0273509974
 Sb        14.3436700129       33.8254389337       24.2069572924
 Cl        14.6308867694       33.4592670103       30.3583274352
 Cl        15.3132684547       37.4172749324       21.8069266082
 Cl        14.3486394734       36.3088506807       27.8863844802
 In        16.0835669359        9.9277027715       16.2408294683
 In        16.0980824721        9.5350635495       22.4276690640
 In        16.2421114996       12.9599847222       12.5096324777
 In        16.0217839498       12.8865599532       19.4577839030
 In        16.0105624418       12.7278835095       25.7752972335
 In        15.8509752288       15.7930172894       10.0763708335
 In        16.0943884573       16.0888209282       16.0124610407
 In        16.0229787705       16.0182606098       22.6396624553
 In        16.2660318354       16.2606150632       28.7505275331
 In        16.0093989070       19.3020183798       12.8853602925
 In        16.0272122177       19.2868275212       19.3027065349
 In        16.0196090681       19.2251687593       25.7815061709
 In        15.9408880406       19.2916718118       32.2735202724
 In        16.0886762709       22.3336003160        9.6073658680
 In        16.0057341592       22.5787307228       16.0184063657
 In        16.0180428686       22.5038039772       22.5179736976
 In        16.0068944499       22.4365894348       29.0003606803
 In        16.0055572230       22.6606095468       35.4642842951
 In        16.0092621792       25.7524761240       12.7402247376
 In        15.9454487716       25.7808147205       19.2266885344
 In        16.0208248797       25.7229112523       25.7743291857
 In        15.9301693706       25.7098571826       32.1837460614
 In        15.9391044177       28.9944281455       16.0129902324
 In        15.9442880417       28.9866462486       22.4349630911
 In        15.9503221000       28.9696456776       29.0574729090
 In        15.7904195328       29.2067867916       34.9993929289
 In        15.9424326019       32.2627511394       19.2320181373
 In        15.9220128841       32.1021196364       25.6901102771
 In        16.1563551952       32.0975637790       32.5116260764
 In        16.0165926236       35.4026001119       22.6547076653
 In        16.0240773190       35.0039954185       28.9755998501
 Cl        16.9868638149        8.7318589544       14.4033672625
 Cl        17.7776510059        8.4425140745       20.6860845181
 Cl        18.5121947476        7.5299058294       26.4123629705
 Sb        17.2626322097       10.9091884757       10.9754048053
 Sb        17.7170487640       11.4332454738       17.7653188630
 Sb        17.6669361285       11.0814102185       24.1432547619
 Cl        17.8530651507       11.3422469178       30.2268914304
 Cl        17.4296550143       14.5351740980        8.6389652892
 Sb        17.6626930380       14.4013032774       14.4480346943
 Sb        17.6857528370       14.4649697329       20.9973873295
 Sb        17.6925267620       14.3238835740       27.3650815244
 Cl        17.8952841139       14.6870366149       33.6268837781
 Sb        17.5775695825       17.5342740763       11.3991304253
 Sb        17.6627681810       17.6551672556       17.7032297605
 Sb        17.6749973932       17.6467925194       24.1681868201
 Sb        17.6530515279       17.6492951692       30.6969665953
 Cl        17.8219728883       20.6252805815        8.5261782126
 Sb        17.6341537672       20.8804280253       14.5006867135
 Sb        17.6455409848       20.8763461949       20.9198048870
 Sb        17.6341395598       20.8530350924       27.3723082509
 Sb        17.5926454707       20.9045027404       33.9238120240
 Sb        17.6583308207       24.0360152888       11.1661377750
 Sb        17.6113248200       24.1377358889       17.6739369881
 Sb        17.6323442886       24.1198849684       24.1338746689
 Sb        17.5911904939       24.1009228899       30.5864136379
 Cl        17.7848451040       24.2828026011       36.5550498216
 Cl        18.5537051035       26.3999814367        7.5874748671
 Sb        17.5888739196       27.3844406052       14.3701796527
 Sb        17.5875704252       27.3520218261       20.8656454554
 Sb        17.5989923417       27.3673206479       27.4031769127
 Sb        17.5271152547       27.4295712267       33.6925571903
 Cl        18.0421547357       30.2186904714       11.1735242527
 Sb        17.5725839987       30.6414587014       17.6183790593
 Sb        17.5987042978       30.5362805523       24.0996266948
 Sb        17.6210016400       30.5892741158       30.6235967746
 Cl        17.4849805854       30.4102621248       36.4108564520
 Cl        18.0421195728       33.7932630772       14.7371612082
 Sb        17.5980408835       33.8820534382       20.9185765858
 Sb        17.6488231827       33.5526136889       27.3664963568
 Sb        17.2648111611       34.0840421908       34.0953456590
 Cl        18.5833708529       37.4742753367       18.5719555941
 Cl        17.7469677627       36.5121879338       24.3745743942
 Cl        17.0908116077       36.3103149185       30.6607135493
 In        19.0572591874        9.7705690130       12.7312881974
 In        19.3040527848        9.8425665073       19.3671779123
 In        19.3964106040        9.5302064892       25.7152363103
 In        18.9878489178       12.7237941423        9.7622899185
 In        19.3854801508       12.8740367184       16.0039425772
 In        19.2318273046       12.8203113020       22.6459521785
 In        19.3059285707       12.7218159675       29.0624955092
 In        19.3613597077       15.9972938386       12.8900018169
 In        19.2973918729       16.0279247421       19.3037048149
 In        19.2874938910       16.0163613524       25.7772692778
 In        19.2909212578       15.9440726546       32.2694787434
 In        19.2073421956       19.1477586819        9.9160432602
 In        19.2920330061       19.2892059561       16.0985306407
 In        19.2895383598       19.2541534403       22.5143394149
 In        19.2293088534       19.2251626525       28.9890278329
 In        19.2942161365       19.3084376049       35.4628198286
 In        19.2159593611       22.5131595010       12.8906690923
 In        19.2327490277       22.5105430484       19.2909855818
 In        19.2380772320       22.4998277670       25.7655711533
 In        19.1434461865       22.4253863988       32.1843963401
 In        19.3280726524       25.6165242421        9.5994935128
 In        19.1580010078       25.7792231771       16.0168650264
 In        19.2233546196       25.7696631854       22.5063112094
 In        19.2245905758       25.7169609115       28.9841854185
 In        19.1426348763       25.7898163143       35.1540315986
 In        19.2209375228       28.9907890926       12.7430204264
 In        19.1479614091       28.9937248327       19.2241679464
 In        19.2234784010       28.9678096708       25.7732582876
 In        19.2884067286       28.9850723782       32.1892483399
 In        19.2172982271       32.2639163973       16.0195440717
 In        19.1513473745       32.1638572230       22.4427724944
 In        19.3593378887       32.1047391903       29.0764950431
 In        18.9762663003       32.2667158200       35.3154980607
 In        19.3110720954       35.4541543111       19.3792752594
 In        19.2235116366       35.1473965489       25.7734633897
 In        19.0465496573       35.2354360344       32.3547007258
 Cl        20.6193622878        8.4662482432       17.8346344174
 Cl        21.0735203936        8.4590572175       23.9604923576
 Cl        21.7730655089        7.5576885692       29.6706275394
 Cl        19.9749566781       11.9891785715        7.8067177478
 Sb        20.8322309472       11.1133454015       14.4397560216
 Sb        20.9277093050       11.3420905428       20.9643212137
 Sb        20.9636695565       11.0852056493       27.4142696304
 Cl        21.2647268829       11.3883499817       33.6285385406
 Sb        20.7957794254       14.3422026015       11.1951051967
 Sb        20.9385910083       14.4435006927       17.6811277594
 Sb        20.9266722835       14.4177461051       24.1698775537
 Sb        20.9224734420       14.3526323128       30.6483306786
 Cl        21.7281728746       15.2967534873       37.4592656426
 Cl        20.6619620984       17.7575823054        8.5090899117
 Sb        20.9050331934       17.6289118558       14.5126539225
 Sb        20.9213330289       17.6332986348       20.9110148528
 Sb        20.8794795512       17.6585861945       27.3601444355
 Sb        20.8956195672       17.6267220309       33.9048342621
 Sb        20.8408416157       20.7881295298       11.4033351642
 Sb        20.9009682400       20.8765357145       17.7231391103
 Sb        20.8715403809       20.8968087117       24.1276755724
 Sb        20.8384290874       20.8690377670       30.5852176706
 Cl        21.0224450885       21.0181091841       36.5370335857
 Cl        21.0379989576       23.8790346951        8.5082367152
 Sb        20.8441686370       24.1146016626       14.4926989317
 Sb        20.8480344135       24.1236460910       20.9106668346
 Sb        20.8658248541       24.1195082067       27.3695827682
 Sb        20.7910483437       24.1284499186       33.6829995002
 Sb        20.8993340575       27.3190067813       11.1522188769
 Sb        20.7994058704       27.3539241966       17.6549691593
 Sb        20.8537685357       27.3599070245       24.1453522986
 Sb        20.8688716310       27.3495736670       30.5714685749
 Cl        20.6586745443       27.1432839433       36.5442547266
 Cl        21.7907273738       29.6416006679        7.5772415832
 Sb        20.8279611387       30.6353368050       14.3723666194
 Sb        20.8178810349       30.5409907174       20.8820743359
 Sb        20.9097372597       30.5300655782       27.3880427456
 Sb        20.7666276313       30.5976072404       33.8948948870
 Cl        25.1511789186       32.8025960044        7.7213024393
 Sb        20.8820153910       33.8629809821       17.6910142120
 Sb        20.8446872667       33.6343172668       24.1456224984
 Sb        20.8012332045       33.8584670871       30.6470350112
 Cl        21.7877104515       37.4022167063       15.3192992575
 Cl        21.0607396438       36.4961707853       21.0874159473
 Cl        20.6074855887       36.5392798578       27.2360702445
 Cl        19.9165790261       37.3388892987       32.7589790730
 In        22.4172161018        9.5353248216       16.1241934607
 In        22.5762153758        9.8478195505       22.5872374864
 In        22.7272137411        9.5334327884       28.9895301742
 In        22.4984166173       12.7436840653       12.8102371270
 In        22.5925861877       12.8128537351       19.2325155392
 In        22.4929383684       12.8153301128       25.8563565195
 In        22.5734321328       12.7313701082       32.2597480670
 In        22.3395514710       16.0154794603        9.6043571847
 In        22.5931321274       15.9946411571       16.0213575466
 In        22.5669582827       16.0133934679       22.5085418058
 In        22.4347651015       16.0112692500       28.9896048060
 In        22.5895588070       16.0233593930       35.4612487197
 In        22.5691745406       19.1568660213       12.8905077183
 In        22.5690220668       19.2294355987       19.2901054755
 In        22.5001237742       19.2764009077       25.7190938853
 In        22.4172320020       19.2085346848       32.1836981440
 In        22.4297878314       22.4331503598        9.9135951008
 In        22.4950208367       22.4970111950       16.0918783717
 In        22.5009130038       22.5046324753       22.5044568779
 In        22.4875138987       22.5032211774       28.9870538714
 In        22.4243692952       22.5002402147       35.1550685339
 In        22.4140483717       25.7767891634       12.8914721542
 In        22.4308899290       25.7636566824       19.2912076487
 In        22.4944933053       25.7686388633       25.7780494696
 In        22.5018999197       25.7780441227       32.1887545898
 In        22.5859569749       28.9063494563        9.5991530907
 In        22.3591422523       28.9876108844       16.0167384334
 In        22.4770360404       28.9822969916       22.5342622125
 In        22.5662576381       28.9836481735       29.0556430497
 In        22.3301126366       28.9090202745       35.4689090464
 In        22.4925756254       32.2593653133       12.8099480594
 In        22.4127197883       32.1193260583       19.2259311513
 In        22.5511153405       32.1744548008       25.8435643192
 In        22.4310952305       32.1951023594       32.2743552392
 In        22.5855626071       35.4000112254       16.1076721728
 In        22.4958175257       35.0831742374       22.5023205756
 In        22.3426316491       35.4626376382       28.9793717309
 Cl        23.1238319455        7.5010681163       15.3361367060
 Cl        23.9287322797        8.4381433898       21.1106749870
 Cl        24.3440770564        8.4497039967       27.2163767969
 Cl        25.0076047426        7.7634981135       33.0443942503
 Cl        19.8061195889        7.6310079915       12.2957895886
 Sb        24.1250500033       11.0806000079       17.6999967061
 Sb        24.2011634209       11.3214651722       24.2122831104
 Sb        24.2580040800       11.1079582079       30.6866109789
 Cl        25.0328554337       12.2255609581       37.3768038083
 Cl        23.1972589304       15.2781708462        7.6078954986
 Sb        24.1543653575       14.3588408681       14.3852865048
 Sb        24.1872140981       14.4023728495       20.8873450859
 Sb        24.1252168520       14.4408620086       27.4102202222
 Sb        24.1899318649       14.3649126219       33.8988699003
 Sb        24.0497762338       17.6040210474       11.1385670990
 Sb        24.1755975920       17.5915967042       17.6735175979
 Sb        24.1457769651       17.6402694328       24.1408951836
 Sb        24.0674614463       17.6466134659       30.5633802627
 Cl        24.3214890797       17.7471366747       36.5394263625
 Cl        23.8637622622       21.0439385357        8.4792490329
 Sb        24.1080352284       20.8214642606       14.5067866680
 Sb        24.1462167130       20.8728036669       20.9100156780
 Sb        24.0937664700       20.8855354168       27.3656580819
 Sb        24.0863483238       20.8818141036       33.6808556344
 Sb        24.0621138141       24.0819202991       11.3844362289
 Sb        24.0940694867       24.1125622372       17.7199059266
 Sb        24.0922015245       24.1234930834       24.1546804848
 Sb        24.1064788809       24.1335021808       30.5945208723
 Cl        23.8855182940       23.8910529352       36.5522010822
 Cl        24.3202850526       27.1740832882        8.5127368510
 Sb        24.0621921712       27.3457137187       14.4947314028
 Sb        24.0821609552       27.3393066199       20.9227301679
 Sb        24.1332589665       27.3525039315       27.4105498500
 Sb        24.0333133251       27.3164449541       33.9211947513
 Sb        24.1312404495       30.6395789064       11.1498009136
 Sb        24.0593830625       30.5055207935       17.6548100265
 Sb        24.1199260258       30.5490013897       24.1853150799
 Sb        24.1140052896       30.6231932518       30.6843315250
 Cl        23.1843330762       29.6342082011       37.4719939862
 Sb        24.1723524416       33.8492711440       14.4250776794
 Sb        24.1293701574       33.6075639710       20.8684513301
 Sb        24.0557672662       33.9089188046       27.3974345987
 Cl        20.0160950648       32.9924586348       37.2503351722
 Cl        24.9794003686       37.2735410335       12.0778017417
 Cl        24.3020549766       36.4761573149       17.8314752713
 Cl        23.9064993338       36.5008638280       23.9292041445
 Cl        23.1719848880       37.4881458024       29.6653336387
 In        25.7035277761        9.5349671669       19.4457671733
 In        25.8626364441        9.8492593456       25.8632235810
 In        26.0893664954        9.6841369455       32.3416769230
 In        25.7758743241       12.7256374389       16.0205998295
 In        25.8509513500       12.8185606093       22.4990352467
 In        25.7051676912       12.8203856614       29.0567866971
 In        25.9496077735       12.6579913940       35.3002085704
 In        25.7749468548       15.9983838411       12.7424891811
 In        25.8512999096       15.9504892959       19.2273479536
 In        25.7680320434       16.0275749852       25.7760529245
 In        25.6237762439       15.9335410445       32.1180744212
 In        25.5545766700       19.3046743467        9.5414263287
 In        25.7952281510       19.1569995278       16.0198646842
 In        25.7793126436       19.2298486602       22.5012812047
 In        25.7159551561       19.2827606940       28.9822129824
 In        25.7053412896       19.2282822903       35.1546034230
 In        25.7138898161       22.4030967962       12.8862697905
 In        25.7729302373       22.4884088331       19.2916681154
 In        25.7205097506       22.5124049508       25.7735476165
 In        25.7786474835       22.5706351146       32.1896701763
 In        25.6997266239       25.7015250225        9.9038481965
 In        25.6961561150       25.7060909132       16.0899668409
 In        25.7158776154       25.7601357954       22.5732479148
 In        25.7782036777       25.7846782024       29.0572802285
 In        25.6163723157       25.6214367431       35.4708107444
 In        25.5581679889       29.0602837612       12.8909860544
 In        25.7018399078       28.9279772849       19.2992694184
 In        25.7775498443       28.9937604268       25.8533101198
 In        25.7082128288       28.9814104853       32.3336344974
 In        25.9443997710       32.3443982304        9.8414274466
 In        25.6312649751       32.1226937327       16.0276897415
 In        25.7754930449       32.1193295154       22.5848140504
 In        25.7121352196       32.2679330312       29.0582555225
 In        25.9514416880       35.3095376060       12.8050118644
 In        25.7761495055       35.0813055519       19.2227131981
 In        25.6197959173       35.4555837130       25.6853044639
 Cl        26.3901053613        7.5210296548       18.5839029797
 Cl        27.2119829707        8.4621860376       24.3594053138
 Cl        27.5296909584        8.6261783920       30.4523038754
 Cl        26.9525472735       14.7458408760       11.1907137147
 Sb        27.4087691434       11.1030899783       20.9830482944
 Sb        27.4608363187       11.3538756272       27.4737015622
 Sb        27.7645383357       10.9508046928       34.1459897120
 Cl        26.3946595704       18.5868718524        7.5317930957
 Sb        27.4334005450       14.3097634517       17.6337831460
 Sb        27.3943859343       14.4415983396       24.1517662857
 Sb        27.3747021168       14.4021106886       30.6201222669
 Cl        27.8295244569       14.4092934784       36.3384653349
 Sb        27.4124398451       17.5823388273       14.3766605334
 Sb        27.3932976302       17.6279367758       20.8599565560
 Sb        27.3584069449       17.6608554678       27.3969919104
 Sb        27.3037861210       17.6822750505       33.5434193985
 Sb        27.2401846780       20.8494837893       11.1553946861
 Sb        27.3612935715       20.8160877331       17.6610160924
 Sb        27.3387923385       20.8819613528       24.1553431423
 Sb        27.3426932019       20.9288351651       30.5625033595
 Cl        27.1738371381       20.6039202279       36.5491385820
 Cl        27.1482495804       24.2920616363        8.5125012217
 Sb        27.2917600329       24.0199705236       14.5106297244
 Sb        27.3361711114       24.1110431207       20.9544838867
 Sb        27.3329204813       24.1476108018       27.3916355834
 Sb        27.3387965506       24.0770204449       33.9146801441
 Sb        27.2626969733       27.3671915002       11.4252643261
 Sb        27.3346093599       27.3251578428       17.6769205907
 Sb        27.3485666122       27.3569168342       24.2021563077
 Sb        27.3563117877       27.4031860793       30.6861714383
 Cl        26.3866902028       26.3845196676       37.4941082000
 Cl        27.9857044875       30.7270198837        8.8612237353
 Sb        27.3208842418       30.5635258027       14.4330038274
 Sb        27.3479859601       30.5046118427       20.9373492870
 Sb        27.3568375039       30.6675613054       27.4257504358
 Cl        26.9043549941       30.2459378104       33.8597874244
 Sb        27.7068447051       34.0991515612       11.0177298136
 Sb        27.4076784836       33.6136574400       17.5915756648
 Sb        27.3069069036       33.8655448473       24.1138140798
 Cl        26.9254136454       33.8077746549       30.2913424450
 Cl        27.5222738706       36.4160432945       14.6295831738
 Cl        27.1637929129       36.4799955809       20.6914762330
 Cl        26.4211505511       37.4800075822       26.4070667723
 In        29.0059368357        9.5961230700       22.7420127791
 In        29.2116401389       10.0605082407       29.2238418353
 In        29.0610467388       12.7271694556       19.3041224964
 In        29.0689324641       12.8843597778       25.7740316512
 In        28.8434535145       12.5113616109       32.1222943009
 In        29.0585402862       15.9442410415       16.0139314433
 In        28.9966644018       16.0109325257       22.4851769745
 In        28.9922520727       16.0166648059       28.9865569507
 In        28.9111943358       16.0826383526       35.0084809623
 In        28.9823258824       19.2220973154       12.7340986513
 In        29.0499691893       19.2101838232       19.2285145850
 In        28.9749545491       19.2884625760       25.7778384529
 In        29.0588292353       19.3741815964       32.1144274358
 In        28.8156823175       22.5086730779        9.6046406056
 In        28.9976766267       22.3534310502       16.0094389459
 In        28.9805001479       22.4964721532       22.5696931984
 In        28.9872815789       22.5842521841       29.0037768963
 In        28.9028658262       22.3485880255       35.4689563257
 In        28.8521784674       25.6269594830       12.9034570742
 In        28.9257905137       25.7045825372       19.3123421583
 In        28.9926695053       25.7877409219       25.8523905489
 In        28.9833733951       25.7698888740       32.2770135688
 In        28.9844281417       28.8278830921        9.9160771117
 In        28.9179792534       28.9898105838       16.0864555507
 In        28.9873085490       28.9846361676       22.6392590882
 In        28.9859455083       29.0491209293       29.0606190622
 In        28.7436938793       32.5220169669       13.0352691396
 In        28.9753229949       32.1196320602       19.3652142469
 In        28.9786432470       32.2646520377       25.7823498602
 In        29.1246225314       34.9919950341       15.8691254996
 In        28.8895203143       35.4019635683       22.4130477349
 Cl        29.6765196920        7.6065190860       21.8074218446
 Cl        30.4424726440        8.6238501908       27.6229836874
 Cl        30.2676416634       11.2133607823       18.0347050606
 Sb        30.6748948235       11.1595397965       24.3144682736
 Sb        30.9322154493       11.0855894188       31.0337261689
 Cl        30.3871368994       14.6881034371       14.5970577615
 Sb        30.6484132828       14.3634538658       20.9473865524
 Sb        30.6553456515       14.3749611700       27.4941275592
 Cl        30.3043186313       14.6751496224       33.4852687795
 Cl        30.3223124326       18.2000440318       11.1377469843
 Sb        30.6754066358       17.5873494349       17.6412106307
 Sb        30.5442125778       17.6316423695       24.1558604865
 Sb        30.6036631589       17.6415004259       30.6115112722
 Cl        30.6016468742       17.1412832749       36.3168051799
 Cl        29.7022200775       21.7612697943        7.6271020874
 Sb        30.6709628153       20.8289958561       14.3381453832
 Sb        30.5695641426       20.8369448401       20.9372927635
 Sb        30.5623648840       20.9219968088       27.4050609159
 Sb        30.6036416768       20.8161783465       33.8903696019
 Sb        30.4183007485       24.1805121552       11.1527061463
 Sb        30.5018901616       24.0079986645       17.7176355057
 Sb        30.5662977203       24.1452511766       24.1877231956
 Sb        30.6111711844       24.1468194504       30.6528169052
 Cl        29.6009569339       23.1543657782       37.5007903608
 Cl        30.6029667434       27.8153638991        8.6045933469
 Sb        30.4651725163       27.2058559818       14.5290091692
 Sb        30.5282510166       27.3404084906       20.9464885895
 Sb        30.6313899038       27.4020175528       27.4344223183
 Cl        30.2386175463       26.9496703581       33.8245471304
 Cl        30.5188121718       29.9860609912       11.6144915378
 Sb        30.5820414876       30.5781227074       17.6628344209
 Sb        30.6285030733       30.6341877139       24.1715235061
 Cl        11.3007599769       23.5106905450       11.3618730375
 Sb        30.9030718897       33.9004554182       14.0802196383
 Sb        30.5722928761       33.8491896760       20.8262669329
 Cl        30.2696842985       33.8099400113       26.9268864174
 Cl        30.3755172701       36.4113722657       17.4659664177
 Cl        29.6808835643       37.4064510223       23.2010043805
 In        32.3444343656        9.7573361249       26.1634557466
 In        32.2659766336       12.7996315932       22.6519686873
 In        32.2857898215       12.7342340261       29.2153442491
 In        32.2740327208       15.9525680581       19.3032680155
 In        32.1263092471       15.9984513879       25.7798850792
 In        32.4970734680       16.1709348976       32.1146884868
 In        32.2742257783       19.2157330230       16.0214589338
 In        32.1820919401       19.1534601691       22.5003947947
 In        32.1767707779       19.3582400573       29.0645685404
 In        32.3386864794       19.0612446949       35.2468324729
 In        32.1024972347       22.7295668977       12.8232226886
 In        32.1687897148       22.4097114585       19.2932622395
 In        32.1797649693       22.5738908005       25.8478372215
 In        32.2023382760       22.5000354738       32.2632745741
 In        32.7347085359       25.1615160026        9.9231098543
 In        32.0964931103       25.5619436872       16.0930338052
 In        32.1692125083       25.7801118800       22.5878037152
 In        32.2600967784       25.7762412217       29.0539783046
 In        32.2082498731       28.2095394207       12.6581422060
 In        32.1076644389       29.0560733987       19.4294597881
 In        32.2595646538       28.9862853043       25.7844379926
 In        31.9617096397       32.5786588555       16.2604263744
 In        32.1891824754       32.2560903272       22.5055021697
 In        32.1933460057       35.3127418216       19.0554720790
 Cl        32.9596226729        7.8065767728       25.0745821497
 Sb        34.0585701203       11.0004405460       27.9096704330
 Cl        33.7669854304       14.7748836651       17.9816141055
 Sb        33.8728576372       14.3873147714       24.3380071891
 Sb        33.9374554820       14.1026945042       31.0167938865
 Cl        37.3759396925       21.7935932710       15.2515062433
 Sb        33.9075750534       17.5849041342       20.9961445364
 Sb        33.6481129006       17.6068477885       27.4769780421
 Sb        34.0680392448       17.2625499644       34.1214695883
 Cl        33.7822416533       22.9168262371       10.9220708737
 Sb        33.8633392512       20.8428074271       17.7528616067
 Sb        33.6541151230       20.8324436799       24.2058125263
 Sb        33.8611406725       20.8131080075       30.7073663200
 Cl        32.9736171899       24.7615292302        7.6677686956
 Sb        33.8532599583       24.1409053634       14.5172087392
 Sb        33.6793314519       24.0863590668       20.9389640656
 Sb        33.8909398249       24.0904552574       27.4094497488
 Cl        32.7546884352       19.9396318041       37.3448623024
 Sb        34.1319630703       27.3891448293       10.8815645319
 Sb        33.5449639751       27.3115445322       17.7284958847
 Sb        33.8877551556       27.3213142060       24.1211261089
 Cl        33.7980203366       26.9805944194       30.2951364246
 Cl        33.4322553329       29.9167644614       14.3629992645
 Sb        33.8516567761       30.6321798557       20.8590749266
 Cl        33.8272199784       30.2649178458       26.9133741747
 Sb        33.9978477533       34.1216820984       17.3025355535
 Cl        37.3241172491       32.7321897344       19.7510255369
 Cl        32.9104728144       37.2852225537       20.0174609930
 In        35.3047900863       12.7298150582       26.1712167633
 In        35.4606581866       16.0158678845       22.7536590940
 In        34.9407460117       15.8596955457       29.2230889720
 In        35.4643192623       19.2889840157       19.4564820046
 In        35.1507834661       19.2071363252       25.8623717865
 In        35.3093713708       18.9836667826       32.3370885553
 In        35.4019643578       22.5041705514       16.1788038176
 In        35.1517974984       22.4317288243       22.5811868406
 In        35.4162244892       22.3478550878       28.9927039770
 In        35.3251225251       25.7946609903       12.8049620623
 In        35.1510263527       25.7034084555       19.2951583106
 In        35.4655513463       25.6205633882       25.6997328579
 In        34.9944787213       28.8188482332       16.0114900012
 In        35.4102180688       28.9089981014       22.4174850206
 In        35.1567243545       32.3436377698       19.0567092723
 Cl        37.2451052528       12.1208195735       25.0614035821
 Cl        37.4570901435       15.3808435218       21.8124911773
 Cl        36.4044380894       14.6339178391       27.6306241319
 Cl        37.4610552910       18.6355625058       18.5304379252
 Cl        36.5435840789       17.8417253951       24.3661912536
 Cl        36.3726046288       17.5356157734       30.4462452441
 Cl        36.5570373344       21.0593769676       21.1065555798
 Cl        36.5324369438       20.7145290067       27.2267309498
 Cl        37.2389320776       20.0355328598       33.0567359536
 Cl        37.3879997550       24.9118595394       12.2702640642
 Cl        36.5155931433       24.3225110305       17.7942518458
 Cl        36.5465308537       23.9137457047       23.9527347710
 Cl        37.4056683215       23.2565602059       29.6976692041
 Cl        36.4166993633       27.6623449618       14.4681171324
 Cl        36.5218170968       27.2225250535       20.6294803166
 Cl        37.4820910419       26.4677391556       26.3917815583
 Cl        36.1111891531       30.7192948302       16.8896973088
 Cl        37.4372936148       29.6942656432       23.1511242472
 Cl        33.5639834783       23.6708518268       33.7342282879
 Cl        23.5879967199       33.6655582377       33.6508290943
 Cl        33.6763927646       33.6895938015       23.5643014752
 Cl        11.3455172997       11.3211637121       23.5874996047
 Cl        14.7115034229       17.8200697235       33.5766699822
 Cl        11.3764142644       21.2066566742       33.5541823390
 Cl        33.6445450655       11.4614092569       21.3476741516
 Cl        26.8826111444       11.1807859214       14.6956207324
 Cl        33.8432338996       18.2358029072       14.6172055666
 Cl        23.5704512622       11.2690559769       11.3751294201
 Cl        21.3855770249       33.6821389576       11.3487367468
 Cl        30.3371952261       30.3762662757       30.3867882239
