     282
 i =       31, E =     -8253.5668850841
 In        26.4695584349       23.5756611554       14.1925709784
 Cl        19.9078913381       25.0235683589        6.9089057139
 In        23.5916767528       14.6739784948       14.5137819437
 As        19.0150363454       24.8985203504       13.0097159098
 Cl        21.8863167936       27.7221769349       13.0199620049
 As        19.1455615236       12.9315097586       18.9459287446
 As        22.2114544684       15.7884134608       25.0253021756
 As        19.0835283804       12.8676753822       24.9497672241
 Cl        28.2891540144       10.5274779629       19.2194933843
 In        17.7372117766       26.5597687240       20.5679894591
 In        17.7434761048        8.5007450793       14.3359278374
 Cl        28.3271433793       13.7828317392       16.1234095288
 Cl        27.8239881199       13.0018533605       21.9408231892
 Cl        17.7423978173       28.2212783539       12.9892277735
 As        15.9130389707       25.0864118209       16.0576157388
 Cl        28.2851519766       17.5658805271       12.9438501213
 Cl        27.8566312487       15.9994820777       19.0541103724
 Cl        28.2205410030       15.6464422083       24.6034658015
 Cl        18.6302913625       28.2559402113       21.8236789289
 Cl        28.0626952117       19.8025593637        9.8442926612
 Cl        27.6319485790       18.8966659872       15.9767397592
 Cl        28.3550758030       18.7291933252       21.5677862983
 As        19.0969549622       25.0355752292       18.9815232976
 Cl        18.0143072344       22.0307062387       28.1688307330
 Cl        27.8162049665       21.7516593124       12.9871949874
 Cl        28.3158297781       21.7741906419       18.4635046017
 In        20.4179370495       17.3372408108        8.3559795065
 In        23.6576075186       14.5045251506       20.4966475932
 Cl        28.1509906317       24.6441160170       15.3472055260
 Cl        19.9212606359       27.9671588199        9.8281012544
 In        17.4176566727       14.3413822987        8.4348060716
 Cl        19.0861130732       27.6686044601       16.0906062024
 As        18.9966174480       22.0249120599       15.9803236345
 In        20.5686472175       17.5000105518       14.4932169201
 In        20.8149678909       17.2599122389       26.5664890752
 In        17.6003110443        8.3604039108       20.4232525216
 As        16.1728875011       25.0187610332       22.0018412055
 Cl         6.8221875592       10.2148736664       14.9633909788
 Cl        24.6477797085       21.8524869116       10.0097010806
 In        20.4971932302       20.4306754754       11.4240328900
 Cl         7.3348451572       13.4569515062       12.9820921117
 Cl         6.6999718075       13.3214683669       18.5940460390
 As        25.1856055075       21.9667852140       15.8911062983
 Cl         6.7128916803       15.3132372525        9.9654289981
 Cl         7.3369084821       16.0693968376       16.1973075720
 Cl         6.8350982103       16.5091730043       21.8858321237
 Cl        21.8575686296       28.1645471509       18.6370750177
 In        23.5056440768       17.3415311047       11.3485323878
 Cl         6.9397160229       17.6893257873       13.0730940716
 Cl         7.3715383515       19.0386068709       19.2249809074
 Cl         7.2627326249       19.8404338671       25.2752047737
 As        25.1616582700       15.9365757208       22.0752960076
 In        23.5843281801       17.5803604222       17.6539110382
 Cl         6.6904229648       21.3628695913       16.4454266903
 Cl         7.4457531682       22.0454321829       22.2278155903
 Cl        16.1034419021       27.7736628406       19.1046363193
 In        23.6543930919       17.4253856090       23.5726925007
 Cl         6.8303684128       24.5034803857       19.5625456352
 As        22.1435291755       25.0510959232       15.8945144163
 In        17.5751107204       14.4909034421       14.4884010324
 As        18.9222829149       15.9200526122        9.8978886910
 As        21.9044138380       18.8749238186        9.9039647636
 In        20.4903335205       20.4920791756       17.5034234919
 As        25.2590879408       25.1078728176       12.4781550016
 In        20.4972938371       20.3401229287       23.5034219246
 In         8.3422900282       11.8261919236       14.4255672232
 Cl        15.3709838388       27.8685677915       25.2028793527
 In        23.4150710289       20.2553515079        8.4230901770
 In         8.1000457321       15.8835184739       11.6662801733
 In         8.5116031668       14.4248161049       17.7362599331
 In        17.5791898320       14.3544839786       20.4860370243
 In        23.5852741779       20.4282273970       14.5053359156
 In         8.7432340193       17.5058506576       14.7423594129
 In         8.5864693709       17.4238559503       20.7287412443
 As        19.1047019376       21.9728483103       21.9953722687
 In        23.6591435037       20.5643084871       20.5800262430
 In         8.5001074274       20.6575746941       17.6628481468
 In         8.6734629579       20.4214940699       23.5895605812
 Cl        24.7200495311       28.0355108448       15.3776227837
 In        20.5778924215       17.5011212932       20.5744432059
 In         8.6635668176       23.7452234495       20.7311757049
 Cl        21.7227186614        6.6751046282       16.2152043857
 In        23.8953225873        8.5876728027       20.4910944578
 Cl        22.2357997411        7.2767383657       22.0469959376
 In        23.5682718468       23.4125914540       11.6611889234
 In        17.5778868885       26.3341086418       14.5889715451
 As        19.1020515602        9.9224381021       21.8913879375
 In        20.4168214516       23.4161755603        8.4327610387
 Cl         9.7823006234        7.1370628463       15.1838189563
 As        22.0551965145       18.9941312248       16.0397228335
 In        20.5846779559       23.4816663090       14.5083148574
 Cl         9.9037762566       10.5349960275       12.8707230607
 In        17.4223141442       23.5047640678       11.4240911025
 As        25.1588820232       19.0403718564       19.1122195792
 In        20.5826527622       23.5063323177       20.4959450307
 Cl        10.3067401316       13.0943614905       10.1524263933
 As         9.9286470070       12.9335700434       16.1186725394
 Cl        13.2881194412        9.7635260880       21.6492478603
 As        22.1565769677       19.0000457041       22.0516075162
 Cl         9.8704597459       15.2633082471        7.0783174043
 As        10.1282712393       15.9925383699       13.1935672260
 As        10.0228168263       15.9888572688       19.1183620068
 As        18.9802917756       21.9794888755        9.9569441626
 Cl        19.1954493820        7.2221038961       18.8846688763
 In        23.3466063492       23.1818243770       17.1731082037
 In        17.5056698412       23.5723570044       17.4954820460
 As        10.0379168386       19.1379828172       16.1776020535
 As        10.1536028015       18.9594309577       22.1261109565
 Cl        10.1549927768       19.8084365789       28.1975774678
 Cl        19.8884280244        6.8816702109       24.9616862766
 Cl        13.0493914309       21.7528169652        9.9944972711
 As        10.0119561428       22.1142432204       19.1544300255
 Cl        10.3076855460       22.0489592124       24.7117644266
 In        17.5910618417       14.2611285474       26.5615428304
 Cl        22.0158154271       24.5886296962       10.0305573442
 In        17.5811576724       23.4120616380       23.5054694235
 As         9.8321705693       25.3666150025       22.3529497912
 As        19.0538548557       16.0113352021       16.0052107831
 In        23.7429206270       26.3265406224       14.1822071404
 Cl        10.6764691282       28.3349759116       19.4922820408
 Cl        18.7004690049        6.7113882067       13.2792270332
 In        20.8108459698        8.4438714355       17.3400925984
 As        22.2313754526        9.9164921068       18.9276394763
 In        20.4874388400        8.3493320651       23.3312125551
 Cl        21.3457934821       18.7073047807       28.2698384415
 In        23.8326034674       14.1844560492       26.3380669586
 In        11.9073686584        7.9339327007       15.3050101690
 As        19.0662025848       15.8903793311       21.9979254297
 In        19.7681991622       27.0616920859       11.9066659247
 In        11.7550377770       11.4304416744       11.4261756282
 In        11.5008656326       11.4055027123       17.5825873272
 In        26.5777265008       11.2652507998       20.5790447734
 In        11.5075701122       14.5885743904        8.5101867154
 In        11.5118046306       14.3418619403       14.6571518590
 In        11.5136662250       14.4143431906       20.5871627073
 Cl        22.0444446781       21.9939188851        7.2247934699
 In        23.6658759646       11.5061157924       17.4242886892
 In        11.5066514260       17.4932413141       11.5880455689
 In        11.5058319374       17.4950433113       17.5788973000
 In        11.5832745380       17.3462492731       23.6653928617
 Cl        19.2058570232       15.7356220067       27.7764334694
 In        17.5064985438       17.3311283402       23.5023422352
 In        11.4961791663       20.5810925285       14.5083400708
 In        11.5163569089       20.5006700600       20.5046702766
 In        12.3120226465       19.7566623417       27.4626822044
 Cl        18.9326627034       19.0181335208        7.1862671063
 In        11.5090393796       23.5771984476       17.5737081579
 In        11.5026663921       23.6574021423       23.1680806882
 Cl        21.9689242915       10.0777160745       24.6781486781
 As        22.0028177632       21.8880733063       12.9965509492
 In        11.4129605395       26.4917042035       20.6584278089
 In        20.6510688228       14.4173802394       23.4925559281
 As        19.0054532674       18.9750155354       12.9623604814
 In        17.4117951928       20.5644974085        8.4292008338
 In        20.7343430456       26.4767966310       17.5766268836
 As        24.9464423418       18.8397195834       12.9673131208
 In        26.6469484910       14.3463517986       17.5864895244
 In        20.6496985878       11.5021440565       14.3509578708
 Cl        13.0199273406        7.1730510189       13.2379315908
 Cl        16.5996193348        6.5600484544       21.4370165251
 In        26.5704123471       14.3371402691       23.6641960097
 Cl        18.5303040720       13.5071089299        6.6173134982
 As        12.6492332206        9.6736123207        9.8477069625
 As        13.0902584633       10.0857134813       15.9528967128
 In        17.4948443744       20.5082143959       14.4287193047
 As        22.0575826694       21.9648524258       19.0063129905
 Cl        12.8399123051       12.9141881898        7.3510912259
 As        13.0373853491       12.9935335475       13.0301821026
 As        13.0158170805       12.9291989529       19.0339971114
 Cl        13.0326802536        6.7465691262       17.2814845522
 As        16.2121901224       21.8287793174       25.0023045437
 As        12.9917579406       16.0439216521        9.9988914590
 As        13.0004911060       15.9807346632       16.0385078377
 As        13.0542428562       15.8893970978       22.0980214952
 Cl        13.3452896691       17.5735241721       28.3866659429
 Cl        13.1820641089       18.5234638861        6.7594774765
 As        12.9937777211       19.0577086945       12.9988988293
 As        13.0524800981       18.9787238882       19.0549564890
 As        13.0985423178       18.9342328120       25.1288242764
 Cl        25.0067502710       19.8528912525        6.8541437135
 Cl        24.6334329358        6.7378464784       19.3310341059
 Cl        16.5245701061       21.8033769696        6.7150473558
 As        12.9981611579       22.0703411413       16.0273356282
 As        13.0870725060       22.0203782766       21.9771575164
 Cl        13.6879496863       21.5280670730       28.1306105750
 Cl        21.7238855696       24.9567805097       21.9020749243
 Cl        16.4957800035       25.1532207257       10.0914087832
 As        13.0141856991       25.1074705808       19.0995809230
 Cl        13.1815454735       24.8487014521       24.6683947812
 As        22.1488791439       13.0002630371       15.8923808122
 As        19.0174763209       18.9852473714       19.0501791594
 Cl        13.7210435135       28.4638043841       16.3763440116
 Cl        13.1295274859       27.7295087673       22.1526528537
 As        22.1552471179       12.9344094730       21.9686326580
 As        25.0431051721       15.9644763051       16.2548849779
 Cl        15.3686725406       24.9243377682       28.4041195799
 Cl        22.2146406065       12.5640558064       27.5852964344
 In        17.4956731386       17.4931001654       11.4152892393
 As        22.0687359334       16.0022417737       19.0475483061
 As        19.2148323604       18.6196768678       24.9597390234
 In        20.7263310841       11.4154343021       20.4101108570
 In        14.3435610936        8.5046219206       11.4204311215
 In        14.6664574562        8.6047833164       17.3458674865
 In        26.3168255374       17.1679306819       14.4140399194
 In        14.3375514168       11.2516360812        8.6704636622
 In        14.6629986992       11.4406952534       14.3578575678
 In        14.5086468260       11.3487631296       20.4968714147
 In        26.6480994151       17.4996138671       20.6599049276
 As        25.4063719027       12.5936595284       25.1529344548
 In        14.5126105261       14.5019578693       11.4946160921
 In        14.5165995216       14.4205693926       17.5076940068
 In        14.5018761303       14.2687784253       23.5689138539
 In        20.4871154791       11.3389795373       26.4145305485
 In        14.4250208758       17.5831443033        8.4431067340
 In        14.4957949730       17.4979226023       14.4927652192
 In        14.5194057820       17.4178582468       20.5770822513
 In        14.8197491202       17.5044102015       26.4092808023
 As        25.3941227956        9.6989629924       22.2183675227
 In        14.4284734091       20.5703650435       11.4221637650
 In        14.5022449003       20.5118036843       17.4955806017
 In        14.4381442148       20.4914257539       23.5890201903
 As        19.0004308060       12.9601492288       12.9403997459
 As        19.2009133378        9.9503765343       15.9068217651
 In        14.4282862692       23.5767300522       14.4390109217
 In        14.5819847009       23.5746243593       20.4885868398
 In        16.2859177963       23.4259363962       26.9730241302
 In        17.5026710516       11.4353867875       11.4170142547
 In        14.4255726525       26.6448993931       17.5793898335
 In        14.7384998786       26.4917287959       23.5021578435
 Cl        21.6639126378       16.6582757302        6.5576219232
 Cl        22.0324609808       13.4613442348        9.9864488377
 In        17.5076710331       17.4876450062       17.5135140942
 As        21.9832841866       15.9822559779       12.9345837805
 Cl        19.8267687266        9.6683157034       27.8105497861
 Cl        24.3782747500       15.3963864557       28.2296994677
 In        23.9935593660       11.5798686592       23.2612568350
 In        17.5160624066       11.3311179915       23.4862611693
 Cl        15.3729572633        6.6788083786       10.4687442329
 Cl        16.2166473716        7.2680329434       15.9676594134
 In        18.0735270130       20.4848558171       26.2342356740
 In        27.1344627530       19.6015885238       11.9127114102
 Cl        15.4418612383       10.3713857422        6.8538345567
 As        16.0490203614        9.8601472650       12.8963053982
 As        16.1328672876        9.9171807671       18.9698176319
 Cl        16.5295300739       13.2585609496       28.3306047094
 In        26.6387074406       20.4952471602       17.5707531428
 In        20.4919458336       14.4241791854       11.4187918211
 As        15.8917531829       12.9251950063        9.9661381359
 As        16.0670814403       12.9465701636       15.9800734074
 As        16.0423989815       12.8580775916       21.9908943533
 In        17.5036685909       20.4939327654       20.5640335591
 Cl        15.8835378845       15.9772205097        7.2299618949
 As        16.0207810969       16.0081011717       12.9893916558
 As        16.0368123204       15.9308586219       19.0297242490
 As        16.0956433051       15.7622592563       25.0612325574
 In        17.6632026414       11.4190545670       17.4159367326
 As        25.1406406377       12.9125037220       19.0695344229
 As        15.9679940931       19.0349663874        9.9347027774
 As        16.0135386424       19.0092922508       15.9907332294
 As        16.0045880237       18.9719341480       22.0933784791
 Cl        16.5137818845       18.8549658907       27.5937851491
 In        20.6511330632       14.4952941963       17.4297051737
 As        15.9541257741       22.0349287504       12.9606240150
 As        16.0413338946       22.0184110555       19.0058670329
 Cl        20.4036969056       21.8454575656       25.4543997520
 Cl        25.5906248707       14.8373669865       13.0596592387
 Cl        16.4414137288        9.8614653303       24.9038624130
 Cl        25.1018928883       10.3736717025       16.0015733650
 Cl        22.0132257539       10.2437066421       12.9781554830
 Cl        18.8204721203       10.2497564952        9.9360885331
 Cl        25.0068041340       16.6365602672        9.7335613773
 Cl         9.4480411391       17.8566979398       10.3334696798
 Cl         9.9291169100       21.6030479371       13.1445208433
 Cl        13.2852152492       25.0947399193       13.1289892728
 Cl        10.1369459676       24.9574701339       16.3265162547
 Cl        10.2742684389        9.7165575463       18.5778637535
 Cl        10.0429082718       13.0775816042       21.7652715795
 Cl        13.2342926569       13.0012321089       25.0177166284
 Cl        10.1593444998       16.2243131279       25.0900410654
 Cl        17.9803128248       24.8021805871       25.5409107927
 Cl        24.6605300414       18.9053281122       25.0469515253
 Cl        24.8000625911       22.1700362428       21.7909225480
