      35
 i =       11, E =      -881.2296362018
 Hg        10.0983287691       15.6340697388       10.1102147961
 Hg        10.1247670813        7.3590927538       12.8931419977
 Hg        13.2149224768       13.2233008746        9.7749466585
 Hg        15.6376963751       12.8991795379       12.8792968226
 Hg         7.3553500529       12.8753940751       10.1191160246
 Hg        12.8788721899       15.6425374460       12.8813180943
 Hg        12.8830501286       10.1126279647        7.3592013367
 Hg         7.3666482523       10.1019309596       12.8974077905
 Hg         9.7781195641       13.2182742843       13.2219714639
 Hg        13.2261918950        9.7838220565       13.2190874414
 Hg        10.1003552449       12.8811846805        7.3617686726
 Hg        10.1231710220       10.1128384187       15.6424845310
 Hg        12.8921811376       12.8944127542       15.6356093303
 Hg         9.7794062748        9.7743300852        9.7819780177
 Hg        12.8959044878        7.3636794399       10.1124085210
 Hg        15.6396327886       10.1216947621       10.1053005286
 Te        11.4996524883       11.4998840416       11.4994185806
 Te        11.3111495102       14.9691342279       14.9652790654
 Te         8.0379827278       11.6810103341       14.9730527133
 Te        11.6999914834        8.0353941880       14.9701238366
 Te        11.6718433635       14.9644024019        8.0295329454
 Te        11.3156799447        8.0294490417        8.0352809881
 Te         8.0241944935       14.9590936924       11.6894686265
 Te        14.9608958499       11.6918780800        8.0254106582
 Te        14.9587778924       14.9757606319       11.3049801249
 Te        14.9733610592       11.3239841314       14.9609044909
 Te         8.0403924879        8.0243821602       11.3219382610
 Te        14.9758504494        8.0415410840       11.6827739235
 Te         8.0258952230       11.3027531428        8.0378053361
 Cl        11.4904319551       11.4965470302        5.5932763539
 Cl         5.5938098959       11.4860171839       11.5101489542
 Cl        11.5124388270        5.5943536390       11.5029566164
 Cl        11.4863781090       17.4053794052       11.4947013155
 Cl        17.4058435951       11.5125908797       11.4910021750
 Cl        11.5095435846       11.5045707997       17.4065038363
