      84
 i =      117, E =     -2437.1402123434
 In        16.9586817282       14.2273356259       11.3549801105
 In        13.8396600902       16.5836741783       10.9062193903
 In        16.5583614322       17.1058191360       13.9182022022
 In        17.0288078158       19.4256867301       10.3488353629
 In        13.9091178914       17.0344510198       17.0345065790
 In        16.9606074793        7.3824499777       16.8849639273
 In        13.7795932898       11.2841239852       11.0572128866
 In        19.7659379561       14.1522467181       14.3839534935
 In        16.8917532652       11.0498896445       14.3096006443
 In         8.7115396023       11.5020335632       10.6547696792
 In        14.3305909949       19.8293380584       14.0741807295
 In        16.9505930312       16.9637926138        8.0025340577
 In        14.0799331917       13.7745338433       19.9894537429
 In        11.0481681830       10.8882067452       14.0912567904
 In        10.8763074934       14.3134002286       11.0488681474
 In        14.2260638065       10.9562179861       17.1065884028
 In        10.9690815194       10.7379701993        8.0992270048
 In        11.0526040697       14.0617745257       17.1756746785
 In        19.7640688627       16.3385388794       10.5854685329
 In         8.1744068255       14.4053849041       13.7707174762
 In        14.3857893953       13.3006934111        8.2393943549
 In        13.9846978287       13.9127192022       14.3186871372
 In        17.1103963806       14.1462716663       17.2597543417
 In        16.7057856977       10.1209646845       19.5949204844
 In        10.9572464392       16.9477640699       14.2430441921
 In         8.4052890928       17.6523551772       16.7836822648
 In        10.5027704834       16.4327717196       19.8424222814
 In        13.9155212943        8.1063412858       13.9196473480
 In        19.5858621930       10.1948270796       16.5617981734
 In        11.5997028475       19.6640608132       17.7256111938
 In        10.8208044272        8.3254382580       10.5676628921
 As        12.5114784693       15.4068599421       12.7788467860
 As         9.6418481196       12.5673968191       12.7144513737
 As        15.4934559893       12.4907830940       12.6658735087
 As        15.7525159873       12.4329437674       18.6259548491
 As        15.5345118569       15.2679183731        9.4772373054
 As        15.5226766952       15.5243474939       15.7035864726
 As        18.9136547391       18.1946902123        9.0769252620
 As         9.4576720801       15.4663479320       15.7260156872
 As        18.4850415776       15.7609408691       12.8378549151
 As        15.2656895373       18.4175580828       12.0884108821
 As        12.6395935155       15.4462433428       18.6699624925
 As         9.5347052522       18.6156451723       18.8710843298
 As        12.4258904636        9.4891315802       12.3547687239
 As        12.2352510278       12.6199046651        9.4909300831
 As         8.9519425632        9.5005682598        9.1930924208
 As        12.5485749298       18.5827706998       15.5024033509
 As        18.4659012091       12.5026601690       15.8095022421
 As        12.4385770547       12.3161292815       15.7938153042
 As        15.4744087326        9.2856821904       15.5639203642
 As        18.5302522341        8.7501271863       18.4085379356
 Cl        11.0445548972       11.1330863179        5.8362239907
 Cl        14.6860471946       13.0581774787        5.9858250332
 Cl        17.1922978087       21.6839215820       10.7987361967
 Cl         6.1022071313       17.5930120250       16.6470458873
 Cl        22.0209388105       15.9541951272       10.8628580871
 Cl        19.0028815161       13.8732566579        9.9497831529
 Cl        13.9282882044       18.8795664091       18.7300801023
 Cl         9.0258129843       16.0630347539       12.0359829440
 Cl        10.4320354377       16.1880112104       22.1331032101
 Cl        16.5611167236       19.2053150314       15.3015357364
 Cl         9.4720750968       14.0719985372       19.1224042773
 Cl        15.3875830232       18.9610272725        8.4274056190
 Cl         8.7665823066       13.6668906772        9.4386687763
 Cl        10.6602638698        6.0742699191       11.0179087559
 Cl        13.8480610155        5.8314141464       13.7822894500
 Cl        21.8768753058       10.2836008163       16.3372500508
 Cl        12.4947290604        8.7679669922        8.6803132335
 Cl        16.7882132371       16.3792371056        5.7838864673
 Cl        14.1288403445        9.4976724611       19.1093622024
 Cl        11.7217045820       16.5233137361        9.6105617693
 Cl         5.9045455626       14.1212465481       13.5701907718
 Cl        14.1610129175       22.1106042363       13.9818160028
 Cl         9.0977580145       18.7283456427       14.5403541814
 Cl        15.5156928605       11.1576992150        9.2345284490
 Cl         9.8385476143        9.3301098097       15.3414424343
 Cl        18.9232146272        9.6677986988       13.9984482675
 Cl        17.9778388683        6.2559508724       15.1264402228
 Cl        21.9981318301       14.5196053067       14.7036232107
 Cl        13.8524943260       13.6816000888       22.2579943999
 Cl        11.7972412780       21.9579026702       17.8356035145
 Cl        15.3283276864        6.1412711698       17.9727379735
 Cl        16.6763537102       10.1827607820       21.8991934451
 Cl        18.3383330000       15.7027226774       18.4814043353
