     381
 i =       49, E =    -13380.2582173321
 Zn        16.6291764934       22.1665491919       16.6371794497
 Zn        19.4441532563       24.9667752977       16.5613145678
 Zn        22.2419783517       27.7478209634       16.3892678537
 Zn        17.1284019443       24.7848378187        8.5541307014
 Zn         8.3104691236       13.7492993853       16.4009237767
 Zn        11.0433270791       16.5490589006       16.5563913486
 Zn        13.8333723720       19.3672868901       16.6360823248
 Zn        19.3651389735       22.1702894813       19.3644388722
 Zn        22.2261320849       24.9638546237       19.2786657652
 Zn        24.7839557093       27.5091627665       18.8758765568
 Zn        13.5367206236       10.7908545387       13.5978435805
 Zn         8.5584050346       11.2034280751       18.8641349405
 Zn        11.1068135142       13.8378408531       19.2706767299
 Zn        13.8407772493       16.6307779752       19.3704165461
 Zn        16.5710641252       19.4238345327       19.4247794122
 Zn        22.1612271421       22.1664992185       22.0860274980
 Zn        25.1905696722       25.2076137222       22.2525637429
 Zn        16.4796566781       13.6962084746       13.7587993378
 Zn        10.7976822388       16.1658331169       10.8108771778
 Zn        11.2860324275       11.2836494886       21.9235107791
 Zn        13.9160640243       13.8350554309       22.1641050152
 Zn        16.6370410052       16.6329307557       22.1672865235
 Zn        19.3695979542       19.3632110640       22.1634881754
 Zn        24.7144750471       21.9243225278       24.7151303104
 Zn        19.5069488793       11.0303771718       19.5032409685
 Zn        13.7519112289       10.7984194064       25.1971651671
 Zn        16.7272974915       13.7666383142       24.9555021299
 Zn        19.4494798443       16.4929252515       24.9599360951
 Zn        22.1574334342       19.2673417955       24.9012102156
 Zn        22.3042291387       13.7473630637       19.5229093912
 Zn        27.6948316293       16.3929149898       22.2346978496
 Zn        22.1715869042       16.6344231733       16.6357175188
 Zn        21.8573771309        8.4761177809       14.2476109174
 Zn        22.2513330270       22.3024196029       16.4765417387
 Zn        19.6700235436       13.6941007562       27.7509155781
 Zn        22.2442840886       16.3910784007       27.6870680869
 Zn        24.7913556681       18.8679218872       27.4406647420
 Zn        19.3664698409       16.6285096830       13.8438522448
 Zn        19.2810362086       16.7141328337        8.3101703005
 Zn        11.2678542573        8.5535957867       18.8709789536
 Zn        13.7487973340       16.3252784145        8.3189265967
 Zn        21.9200916752       11.2871473083       11.2806029401
 Zn        16.6522050880       19.2819907032        8.3100430658
 Zn        27.4450858059       24.8028552211       18.8692597612
 Zn        22.4723320601       13.5335487858       25.2001614461
 Zn        27.6872974570       19.6703947547       13.7578027684
 Zn        14.2484437812        8.4757231251       21.8571433912
 Zn        13.7476031188       13.7018617596       16.4887521639
 Zn        25.1895207521       19.8281794138       10.8033302117
 Zn        24.9665274928       16.5555906982       19.4385291212
 Zn        16.5640520929       11.0318666182       16.5697740496
 Zn        17.1269114857        8.4937039935       24.7906013667
 Zn        19.7580277914       25.2001381864       10.8069041441
 Zn        19.4226353635       19.4298590109       16.5760218265
 Zn        16.7263358658        8.2465971821       19.3541795250
 Zn        19.7651049103       10.8015123858       25.1962673110
 Zn        11.2762793604       21.9109399745       11.2872637350
 Zn        14.0749684359       24.7167645403       11.2857034429
 Zn        17.1216223156       27.4460642244       11.2206498403
 Zn         8.5599348356       18.8041954682       11.2739695014
 Zn        13.8328451121       22.1584805656       13.9117306849
 Zn        16.7192020321       24.9572710798       13.8446913099
 Zn        19.6045090022       27.6941999031       13.7608160036
 Zn        16.2346274556       10.8055201349       10.8704085388
 Zn         8.3066497620       16.3284961987       13.7651854288
 Zn        11.0433539714       19.2709434050       13.8456026527
 Zn        16.4913626146       24.9551406918       19.4488896858
 Zn        19.2830570014       27.7532810809       19.2914377446
 Zn         8.2457749721       16.7094843197       19.2927064457
 Zn        11.0354859567       19.4524286837       19.4487968722
 Zn        13.6965999031       22.2492527015       19.5275266408
 Zn        19.2615386575       24.9526060711       22.1545878309
 Zn        21.8408214103       27.5245015826       21.7552016234
 Zn         8.4859326251       14.2373972392       21.7730752209
 Zn        11.0961587765       16.7357227089       22.1623293500
 Zn        13.7490885539       19.5180594258       22.3016303515
 Zn        16.4772636974       22.2550673935       22.2502038430
 Zn        21.9128170421       24.7243577204       24.7116504982
 Zn        22.1664228222       19.3704584288       19.3625518899
 Zn        21.7617850811       14.2312504709        8.4901243578
 Zn        22.1662703270       13.8370729213       13.9148567422
 Zn        19.3699659323       13.8285206511       16.6425305941
 Zn        11.2811804432       14.0809400608       24.7134851047
 Zn        13.8462941309       16.7218890265       24.9522182600
 Zn        16.5561513203       19.4420186328       24.9567892730
 Zn        19.2582966258       22.1651235513       24.8909265807
 Zn        25.2016213976       10.8052091233       13.7504594317
 Zn        14.2462528069       14.1440721134       27.5242954597
 Zn        16.7189433180       16.6453613087       27.7549414902
 Zn        19.2926819737       19.2862171134       27.7507771781
 Zn        21.7649464973       21.8206469249       27.5155689206
 Zn        22.3111306516        8.2498779540       19.6689902475
 Zn        22.2307509134       11.0429342996       16.7303885217
 Zn        25.1853786836       25.2114910999       16.2366394858
 Zn        13.8491525684       11.0430066205       19.2767557044
 Zn        10.8038585344       13.5249376278       13.5969166135
 Zn        24.7209820157       14.0895893358       11.2851613796
 Zn        27.4348433380       17.1932423693       11.2141931268
 Zn        22.1630939380       16.7412644929       11.1117279077
 Zn        18.8009229340       11.2076997149        8.5636592987
 Zn        24.7960137352        8.5534120029       17.1262660437
 Zn        25.1980770503       16.2373045787       25.1926423890
 Zn        25.2068131104       10.8081239516       19.7635640677
 Zn        22.2342867573       19.6668016267        8.3097447475
 Zn        24.9565871205       19.5100064056       16.5512019337
 Zn        24.9628876457       13.7731149867       16.7205201031
 Zn        19.4445753081       19.4519464174       11.0539471343
 Zn        27.6952013535       22.3132588353       16.3355129026
 Zn        19.5300977507       13.7479142528       22.2552984831
 Zn        16.6401957972       13.8263722526       19.3676670447
 Zn        27.7531227999       16.7165339696       16.7075469658
 Zn        10.7914285126       25.1890485743       13.7481009760
 Zn        14.0977381225       27.5239572288       14.2371846743
 Zn         8.4747352164       21.8421781687       14.2437986260
 Zn        13.7630589238       24.9443935705       16.7207347618
 Zn        16.6441116130       27.7583154371       16.7108256431
 Zn        19.4305827963       16.5750485080       19.4242544773
 Zn        22.2525047208       19.5269729931       13.7494063680
 Zn         8.2457889615       19.2987075675       16.7114907768
 Zn        11.0341268683       22.2241395072       16.7245402967
 Zn        16.3233743722       27.6894963400       22.2338100981
 Zn         8.2542020794       19.6058554855       22.2463915314
 Zn        10.7981184724       22.4077187367       22.4598751882
 Zn        13.5186629879       25.1900794348       22.4615366248
 Zn        18.8045076417       27.4401174388       24.7252230061
 Zn        27.5208917660       14.1601311364       14.2378808567
 Zn        16.7333341104       11.0398672598       22.2329933610
 Zn        19.2685101727       13.8335798604       11.1073683952
 Zn        16.6278265796       19.3672781775       13.8420458062
 Zn        19.5946038263       22.2430026187        8.3108732049
 Zn        24.7271650897       17.2010502148        8.5604938637
 Zn         8.5583058180       17.1932568533       24.7943122216
 Zn        10.8061074559       19.7620465294       25.1982325324
 Zn        13.5306563172       22.4605521256       25.2014728903
 Zn        16.1737140674       25.1962202939       25.1934797840
 Zn        13.5366179442       13.5234962830       10.8684270629
 Zn        16.5725293176       16.5704434889       16.5748874226
 Zn        11.2677706360       17.1309660947       27.4438230156
 Zn        13.7641027578       19.6074893890       27.6903991010
 Zn        16.3868088446       22.2398572746       27.6867806915
 Zn        16.7230578920       22.1584421504       11.1098346452
 Zn        22.4053184073       22.4706796383       10.8097570072
 Zn        19.5153071434       22.2996759603       13.7475978844
 Zn        13.7635532780        8.2500115643       16.3983251801
 Zn        24.9498672273       22.2354753334       19.2756824816
 Zn        22.4754895600       10.8000571859       22.4717876260
 Zn        25.2128970602       13.5347317294       22.4599984665
 Zn        16.3930042624        8.2988046313       13.7717028131
 Zn        22.2991349565       16.4821273549       22.2559398354
 Zn        22.4609879221       25.2132912284       13.5402087078
 Zn        24.9542068711       16.7402631518       13.8418804187
 Zn        16.3344561428       13.7446601353        8.3213047617
 Zn        19.6714729638        8.2476280005       22.3042121728
 Zn        19.3555019572        8.2452151175       16.7275352138
 Zn        11.1943540402       27.4428085770       17.1270783005
 Zn        24.9544255672       19.2804075285       22.1531150107
 Zn        27.5251900488       21.9056660992       21.7586905188
 Zn        19.2795324534       11.0442696472       13.8520480443
 Zn        27.7463080965       13.7563183989       19.6090929475
 Zn        13.6871976777       27.6940228449       19.6144063114
 Zn        11.2026922711       18.7934428014        8.5632837628
 Zn         8.2504415361       22.2443524855       19.6534298199
 Zn        10.7886316871       25.1811006008       19.7654094547
 Zn        13.6963757520       16.4720648442       13.7589478190
 Zn        14.1702929826       21.7664641614        8.4891477534
 Zn        25.1873811724       22.4794202331       13.5302443862
 Zn        27.4428742059       18.8748465609       24.7293821309
 Zn        13.8342764968       19.2087230080       11.1162545811
 Zn        27.7568619046       19.3586684928       19.2848568700
 Zn        16.5471117469       16.4921842415       11.1043176499
 Zn        18.8698093283        8.5556670006       11.2702303296
 Zn        10.8075482920       10.7950803230       16.2452510024
 Zn         8.4904136608       24.7759312574       17.1274496344
 Zn        17.1272523170       11.2065961519       27.4482661567
 Zn        18.7981062846       24.7980840735       27.4377354549
 Zn        27.5069277936       11.2154871716       17.1223416209
 Se        17.9002269028       23.7184115750       23.6955862912
 Se        20.8612066305        9.5501787780       18.0691311661
 Se        20.8815823521       23.7318938704       15.1014076868
 Se        21.0340531345        9.3730992669       23.8026342703
 Se         9.5580611761       18.0257816599       20.8193542478
 Se        26.4381843742       18.0722313228       15.1944011038
 Se        26.4988000249       15.2312047618       12.3511281609
 Se        18.0330209703       15.1599838763       20.8402666243
 Se        15.1657410117       20.8000438696       12.3942012973
 Se        15.1729478217       17.9107863123        9.6060850415
 Se        23.7535722952       26.6437414609       15.0065897215
 Se        12.3695751359       15.1933526764       26.4947355718
 Se         9.3724839653       23.7467414871       21.0166813315
 Se        12.3992852765       15.1822863136       20.8225657870
 Se        23.7559334826       21.0413800933        9.3752224775
 Se        20.7555138031       23.6812598580       26.4849778982
 Se        23.6400972250       20.8060449516       20.7746719025
 Se        15.0771798375       23.6874103623       20.9028687280
 Se        17.9272895956       26.4366309210       20.8004280947
 Se        14.9946379483       12.2112189157        9.4269672716
 Se         9.5481994890       20.8161239227       18.0474191102
 Se         9.3460832341       26.6121502317       18.2131689982
 Se        20.8747979615       20.9054131858       12.3061006429
 Se        20.9679148541       23.7829693344        9.3625031923
 Se        18.0143194792       26.4508527380       15.2072880494
 Se        17.9659905304       15.1430618874       15.1585904100
 Se        15.0838583576       15.0761136953       12.3424312554
 Se        17.9961395902       17.9988918088       17.9965776348
 Se        12.2882576200       15.0797015450       15.1323901728
 Se        20.9792719036       26.6307561438       12.2229582549
 Se        20.8067185903        9.5073303412       12.3698896169
 Se        15.1147142944       20.8981819650       23.7192401833
 Se        20.8030826729       12.3574602260       15.2249391974
 Se         9.3904466697       18.1989322152       26.6684091563
 Se         9.5722157046       15.1827340182       17.9827575558
 Se        15.1466290972       20.8431905670       18.0359436979
 Se        17.9821602682       23.6316888702       18.0073289865
 Se        23.7327248465       15.1171820628       20.8960237683
 Se        23.7803059870       15.0151536940       26.6250510541
 Se        15.2051850861        9.5367576300       17.9801325927
 Se        17.9923460481       17.9902962239       12.3848491061
 Se        23.6668713430       26.4553503380       20.7558049995
 Se        14.9948208743        9.3686031404       12.2635985699
 Se        20.8054687098       17.9662442577       26.4202222130
 Se        12.2915322028       20.8650069669       20.9167451799
 Se        26.4515238773       12.3328127803       15.2377952056
 Se        26.6178123635       26.6540829710       17.7856842275
 Se        23.6402652501       20.8006353478       26.4899054908
 Se        23.6476236270       15.2061881465       15.2167692062
 Se        17.9696597780       20.8398919869       20.8422789510
 Se         9.5454862402       23.6627775557       15.2468875683
 Se        23.6344815879       23.6488011342       23.5373098563
 Se        15.1540303530       18.0307995084       20.8526533046
 Se        12.2572839074       17.8864028153       12.3110240370
 Se        18.0234813797       12.3570465576       18.0234451513
 Se        17.7808600629        9.3482222537        9.4136099660
 Se        12.2801920072       23.6982750767       18.1190140223
 Se        23.7261512425       17.9327131684       23.7014724088
 Se        15.1441199208       17.9618328923       15.1550129734
 Se        17.9769807067       20.8136522862       26.4271066769
 Se        15.1394304822       26.4349926346       18.0357503760
 Se        20.8160890037       20.8228893353       23.6007894116
 Se        20.7738208713       26.5003085131       23.6315208387
 Se        17.9212730184       12.2751926017       12.3139920391
 Se        18.0254161969       20.8503664863       15.1520821489
 Se        12.3706509985        9.5043025283       20.8081775496
 Se        12.3227542627       20.7389296868        9.5246595409
 Se        18.1295945202       12.2994828286       23.7037004910
 Se        23.6323333073       18.0177231006       17.9887668060
 Se        12.1887155582       26.6124580719       21.0142735818
 Se        26.4432335674       20.8667625580       17.9472550632
 Se        18.0656473695       23.7264807213       12.2960007627
 Se         9.3861437402        9.3429740169       17.8230865337
 Se        15.1945435920       23.6402952212        9.5085788688
 Se         9.3479632233       17.7464575566        9.3967709377
 Se         9.3618394187       12.2031854241       15.0286834986
 Se        26.6415618240       12.2415638582       20.9867949037
 Se        23.6873279770       20.9235707330       15.0944346440
 Se         9.5066851684       15.2328788444       23.6600092783
 Se        26.6280172539       21.0404212604       12.2123534497
 Se        20.8164949702       18.0449523955        9.5871927539
 Se        17.9527601729       15.1680614974        9.5915910480
 Se        15.2416739043       12.3272537644       26.4342683548
 Se         9.3539324545       20.9634058882       23.7797320380
 Se        15.2123102792       18.0187540903       26.4474655086
 Se        15.2264173701       15.1990720900       23.6434215577
 Se         9.5140419052       12.3506984869       20.7887213520
 Se        12.3054193401       26.4175725035       15.2431190566
 Se        18.0728922538        9.5497497970       20.8584770956
 Se        15.2510736065        9.5536685268       23.6770283822
 Se         9.4961786961       20.7753237774       12.3651566809
 Se        12.1680440470       23.7889732154       23.8116505744
 Se        23.8373293221       12.1869872419       23.8223942511
 Se        12.3742333195       17.9935295739       18.0075790192
 Se        12.1776524142       12.1636108589       12.2362332426
 Se        23.7130469764       18.1023266780       12.3030551022
 Se        14.9870954997       23.7680813193       26.6401778632
 Se        26.4505108680       17.9872050940       20.7875960585
 Se        12.4642577364       12.3603605026       23.6423891093
 Se        23.7860316190       23.8204702301       12.1720746985
 Se        26.6480046824       17.8253781257       26.6076251463
 Se        20.8398219926       18.0303544228       15.1574689832
 Se        20.9338283176       12.3156947809       20.9127954017
 Se        17.9830521903        9.5466772614       15.2133655561
 Se        12.2272695780        9.3473471566       15.0386952614
 Se        12.2285734406       20.9850213215       26.6274870308
 Se        23.8126885252        9.3783770693       21.0279538193
 Se        20.9223718708       15.1054042904       23.6943022790
 Se        15.1938016547       23.6377841915       15.2177811650
 Se        20.8523921412       17.9703580247       20.8437593569
 Se        23.6732787387        9.5695384894       15.2409878932
 Se        18.0587249224       15.1387361162       26.4544158805
 Se        15.1093490697       12.2652899047       15.1247963642
 Se         9.3728126371       14.9485404183       12.2421691063
 Se        20.7938534126       23.6473618694       20.7772586949
 Se        23.6418657272       12.3651601537       12.4558381088
 Se        20.8408272919       20.8528215366       17.9622603612
 Se        18.1836280800       26.6434020781        9.3589904025
 Se        12.2994537405       12.2714729878       17.9264558190
 Se        23.7026068241       23.7202196345       17.8803849830
 Se        20.8528423501       15.1572606857       18.0333479574
 Se         9.5523865880       17.9433978849       15.1976673317
 Se        12.3501097275       20.7930601568       15.2232960500
 Se        20.8160159761       15.1822295467       12.4003404078
 Se        26.4966767640       20.8223362803       23.6237304521
 Se        26.4475833180       15.1882298075       18.0268316915
 Se        23.7185889984       12.2955880588       18.1145534757
 Se        18.2125216001        9.3580186506       26.6247324054
 Se        20.8111364557       26.4486462724       17.9687843497
 Se        18.0137417168       17.9899233769       23.6314396073
 Se        26.6494096683        9.3788212808       18.2049412365
 Se        26.6309039946       15.0188847444       23.7704011264
 Se        26.6077373756       23.8228633192       14.9594351190
 Se        12.2987557706       18.0751986214       23.7279376530
 Se        26.4198703568       23.6958452186       20.7510291177
 Se        18.0080008129       20.8067845063        9.5857058079
 Se        17.7550096501       26.6537439054       26.6068582564
 Se        14.9556407622       26.6292796723       23.7797168927
 Se        12.3506103568       23.6328820043       12.4601679188
 Se        15.1834255534       26.5007579665       12.3633967863
 Se        15.2261391520       12.3526033648       20.8026257431
 Se        21.0343508107       12.1997052293       26.6262854436
 Se        23.6418264230       15.2312744991        9.5112497686
 Se        20.7635618865       12.3412939664        9.5071496660
 Se        26.6038332774       18.2427285460        9.3544706458
 Se        12.2245698056       14.9464899414        9.3917197060
 Se        15.1549418590       15.1453605538       17.9700137010
 Cl        23.4465368031       18.0438424349        6.9748187181
 Cl        29.0623442769       15.2708756676       20.7506840748
 Cl        20.7959552152        6.9170183923       20.7876907668
 Cl        23.4992990229       18.0081745936       29.0101029553
 Cl        17.9914721970        6.9690385587       12.5290732967
 Cl        29.1006267794       18.0381412044       17.9922220933
 Cl         6.9358058678       23.4890655391       18.0519093179
 Cl        12.4550718099       29.0266089677       18.0323661217
 Cl        15.2600483976        6.9290937012       15.2541410588
 Cl        29.0090604047       18.0623108561       12.4885143566
 Cl        12.3056982882        9.6793992285       26.3155925200
 Cl         6.9540325808       17.9945309764       23.5091942276
 Cl        20.6678575799       29.0742008966       20.7204940377
 Cl        15.2598440834       29.0750331100       15.2792150465
 Cl        18.0506762284       12.4623539009       29.0359669943
 Cl        15.2900310207        6.9131619047       20.7135865647
 Cl        17.9793837881       23.4995387212       29.0206395536
 Cl        18.0004997203       17.9870137393       29.0985670414
 Cl         6.9508871341       15.2239649564       15.2691776951
 Cl        12.5006692605       17.9392890450        6.9966665956
 Cl        23.4923071888       29.0704536351       17.9684139421
 Cl        17.9689473235       17.9966239194        6.9551177789
 Cl        17.9747940553       23.4787035508        6.9852526220
 Cl        29.0476981654       20.8031618931       15.2255163269
 Cl        17.9632084603       29.1007893830       18.0015362637
 Cl        26.3113151824        9.6808707716       12.3014908533
 Cl         6.9049728681       20.7252304718       20.7617514130
 Cl        29.0685686733       12.5080203236       18.0229366739
 Cl        18.0197861913        6.9109358905       18.0186175051
 Cl         6.9219270486       20.6749258534       15.2798799523
 Cl        18.0593640836        6.9294154964       23.5246070901
 Cl        20.6963102824       20.7109553014       29.0759110281
 Cl        15.2602212414       20.7450986615       29.0355811938
 Cl        23.5456178831        6.9637560371       18.0470477148
 Cl        17.9486502301       12.4996819226        6.9923341582
 Cl         6.8852017382       17.9879157696       17.9970206458
 Cl        17.9326690691       29.0255554676       23.4659024429
 Cl         6.9718538647       17.9341951524       12.5326345263
 Cl         6.9831399275       12.4935970717       18.0105385129
 Cl        15.1940690375       29.0378019114       20.7474102569
 Cl        15.2386326982       15.2286667882        6.9509196473
 Cl        17.9933249910       29.0167576029       12.5022078745
 Cl        26.3163545009       26.3263953376       23.6932697281
 Cl        20.7274933189       29.0629826805       15.2397197503
 Cl        29.0704917789       15.3344791469       15.2684144290
 Cl        29.0282207748       18.0040822224       23.4682065057
 Cl        29.0749130393       20.7437527058       20.7132863520
 Cl        29.0177499622       23.5457402530       17.9367144472
 Cl        15.2864975538       15.2881708809       29.0880115847
 Cl        15.2652486319       20.6669813713        6.9412743907
 Cl        12.5316845460       18.0065213627       29.0279830956
 Cl        20.7726560935       15.2500368351       29.0548132176
 Cl         6.9053356200       15.3001839680       20.6946476621
 Cl        12.5181213279        6.9485275973       18.0089982537
 Cl        20.6646379655       15.3162731437        6.9370832200
 Cl        20.7127692746        6.9142801927       15.2870172344
 Cl        20.7129872074       20.7478097948        6.9598521956
 Cl         9.6497462827       26.2947880229       12.3102175893
