     381
 i =      187, E =     -9800.0008194428
 Hg        16.4597901013       22.5518849262       16.4424276351
 Hg        19.5759779009       25.5851233236       16.3587010625
 Hg        22.5663993960       28.4934024362       16.2552912211
 Hg        18.1085792766       26.1513883015        7.1573813137
 Hg         7.8459324430       13.5889106628       16.0318214125
 Hg        10.4881987613       16.4810862042       16.2450138696
 Hg        13.4665132346       19.5337307467       16.3849152230
 Hg        19.5135951797       22.6177952566       19.5308573902
 Hg        22.6155700697       25.6651749295       19.4391104546
 Hg        25.9963809464       28.0169468424       19.1112387201
 Hg        13.1735559619       10.0906473164       13.1861220404
 Hg         6.9752480787        8.6768277040       18.8051979002
 Hg        10.2952021845       13.3287946862       19.3127219222
 Hg        13.3709789003       16.4095734824       19.5173130719
 Hg        16.4203886814       19.5420657214       19.5115808010
 Hg        22.5522240863       22.6337175772       22.5986517839
 Hg        26.9609084355       25.4483592101       22.8618266947
 Hg        16.3512711726       13.3280918637       13.2188507407
 Hg        10.2982168999       15.9220677311       10.3366357533
 Hg        10.3057571881       11.2088483228       22.3325161329
 Hg        13.3498758915       13.3659509675       22.5003441805
 Hg        16.4208034517       16.4354433056       22.4706417812
 Hg        19.5487167048       19.5714620523       22.5568752919
 Hg        24.6507313080       22.4781104684       25.6591997141
 Hg        19.5420479944       10.3883815041       19.5434100124
 Hg        13.1207985944        9.1107903223       25.5122254037
 Hg        16.4814292711       13.3264074510       25.3789807326
 Hg        19.5178925306       16.3413700849       25.4642312910
 Hg        22.6253617509       19.4029646934       25.6056888417
 Hg        22.7539336023       13.2467032707       19.5441440033
 Hg        28.5525318913       16.2729823978       22.6504324009
 Hg        22.5269242222       16.4587369381       16.4506950170
 Hg        22.8600870866        6.7905960636       15.5814192691
 Hg        22.5672083759       22.5713435427       16.3160867098
 Hg        19.5941917531       13.3633606168       28.3348019705
 Hg        22.3710179071       16.1593286421       28.0925196481
 Hg        27.1260416941       18.7908859979       29.0403703109
 Hg        19.5984840098       16.4142542773       13.3686745886
 Hg        19.4454573486       16.4789471358        7.1422833700
 Hg        10.6223433723        7.5954958558       18.9699307817
 Hg        13.5151598541       16.1996880010        7.6845865661
 Hg        22.2137172533       10.6778820514       10.5354736963
 Hg        16.4985294640       19.4133332926        7.1307692384
 Hg        29.0423371643       26.3405544479       17.7694859638
 Hg        23.0014718793       13.1073131078       25.9213603207
 Hg        28.5497453555       19.6549039005       13.3526092449
 Hg        13.6290795845        7.6826883482       22.0830378654
 Hg        13.3237751253       13.3686841999       16.2440705438
 Hg        25.8875568000       20.2633257096       10.2448561053
 Hg        25.5602580250       16.4057384248       19.5596883572
 Hg        16.4154991367       10.3817796462       16.3129294430
 Hg        18.3026614164        6.9728248167       26.0173604236
 Hg        20.2406974377       25.8641106211       10.2350858100
 Hg        19.5239671559       19.5261306310       16.3782556702
 Hg        16.4168402323        7.2872007848       19.3811764724
 Hg        20.6431428363       10.0573569525       25.9964226215
 Hg        10.6999144213       22.1963998222       10.4914743402
 Hg        13.5170549921       24.7167100539       10.2577171572
 Hg        16.8972911246       28.1105572798       10.4037958699
 Hg         8.0992171221       19.2522610208       10.2291088274
 Hg        13.3758924924       22.5762156754       13.3094964307
 Hg        16.5909485572       25.5872113668       13.2743754022
 Hg        19.6589989231       28.5647582881       13.3368686286
 Hg        15.9177339794       10.2521400947       10.3177924481
 Hg         7.3007961917       16.2898751816       13.0843090077
 Hg        10.1524509811       19.5458464403       13.2435196475
 Hg        16.4082542702       25.5759586704       19.5686444605
 Hg        19.1911344959       28.6017729696       19.4072330545
 Hg         7.1317432429       16.4746738717       19.4165740903
 Hg        10.4750470000       19.5855639758       19.4817924781
 Hg        13.2119584033       22.7204375794       19.5805605432
 Hg        19.5221205718       25.7890605456       22.6277266175
 Hg        22.7987212034       29.2725150235       20.3145461939
 Hg         7.8183776772       13.6455329586       22.2216388444
 Hg        10.2873238916       16.5014576044       22.6769092639
 Hg        13.2787672876       19.6809734836       22.6351650856
 Hg        16.3105402431       22.6383643742       22.6565816966
 Hg        22.1012704131       25.3193395533       25.4218831669
 Hg        22.5589116954       19.5236165598       19.5295077424
 Hg        22.3124521200       13.7340800411        7.7688628911
 Hg        22.5722593786       13.3713297253       13.3431100995
 Hg        19.5248842411       13.4025482831       16.4080076791
 Hg        10.5509279100       13.7645365393       25.2201131163
 Hg        13.3086400646       16.3912591016       25.7573464142
 Hg        16.2962494232       19.4556474345       25.4352366593
 Hg        19.4090483605       22.7343015016       25.6632143238
 Hg        27.0252454224       10.5573232778       13.0670774034
 Hg        15.5316837396       13.0975245970       29.0911554066
 Hg        16.5498269164       16.7162053405       28.5500693974
 Hg        19.4019027737       19.5217649899       28.7963554627
 Hg        22.2632459898       22.2611674592       28.1522741342
 Hg        22.5880131098        7.6056240668       19.6126111743
 Hg        22.6373864025       10.4916857395       16.4793839617
 Hg        25.4187633619       25.4588974412       15.9331657676
 Hg        13.3254770525       10.3044278782       19.3355826674
 Hg         9.9841827095       12.9493868357       12.9477236201
 Hg        24.7278630736       13.4996863919       10.3061748830
 Hg        28.0930021807       16.8949135939       10.4311534206
 Hg        22.6910590943       16.5803849130       10.3498337422
 Hg        17.9128755323        9.9668610102        7.1277216380
 Hg        25.8890331952        8.1841895639       17.0014023587
 Hg        25.7476078814       16.0266266656       25.7419856879
 Hg        25.9287748855        9.9996396914       20.6590081383
 Hg        22.5316727758       19.7542818068        7.7476756735
 Hg        25.5516236342       19.5954564156       16.4139630534
 Hg        25.4937472588       13.2247726390       16.3375789802
 Hg        19.5929853944       19.5742511965       10.4099012899
 Hg        28.3100462512       22.4929604467       16.2154691659
 Hg        19.5972249146       13.2309736478       22.6766318414
 Hg        16.4517635947       13.4051602125       19.4470596959
 Hg        28.6835567644       16.5814335460       16.5511001654
 Hg        10.4752565636       26.9621592718       13.0652577929
 Hg        13.9385848940       28.3304017597       13.5558578974
 Hg         6.8378213194       22.8881130989       15.5187358852
 Hg        13.2436417225       25.4618902525       16.3474893137
 Hg        16.4863008437       28.6822317334       16.4614677090
 Hg        19.5391997751       16.4165601282       19.5300614342
 Hg        22.7158619056       19.6813044324       13.2616802839
 Hg         7.3834200776       19.2681158117       16.5208150992
 Hg        10.5341893845       22.6340614083       16.4438536548
 Hg        16.1871091189       28.6456462629       22.8070924872
 Hg         7.8419522923       19.7787956552       22.3402995120
 Hg         9.9893904961       22.8080977177       23.0343508006
 Hg        13.2101221087       25.7798521766       22.8873960796
 Hg        19.1983232183       27.9974064959       25.5547705045
 Hg        28.4073835057       14.0375464713       13.6278399536
 Hg        16.4220454071       10.4946453256       22.6660081751
 Hg        19.4616087863       13.2101408793       10.2515778779
 Hg        16.4261959401       19.5965087329       13.3558383325
 Hg        19.7745541532       22.5065791416        7.7382334525
 Hg        26.1620322766       18.1084607269        7.1890456768
 Hg         6.8389722769       17.2904709580       26.8131820852
 Hg        10.2788941474       19.8322207903       25.6674012880
 Hg        12.9548610561       22.9313251316       25.9913398984
 Hg        16.0163164419       25.6530341576       25.7021582620
 Hg        12.9610629864       12.9519114417        9.9348778108
 Hg        16.4460597467       16.4473436641       16.3701378179
 Hg        10.4041962921       16.6243168290       27.9624466065
 Hg        13.1033166933       19.6803778508       28.6505069805
 Hg        16.0784536292       22.3306289171       28.0881008302
 Hg        16.5884899450       22.6622042802       10.3124600990
 Hg        22.9357795290       22.9391505079       10.0824594701
 Hg        19.6833998849       22.7097747278       13.2669338101
 Hg        13.3528412617        7.3434430806       16.1388447012
 Hg        25.6272332374       22.6730181395       19.5951585752
 Hg        22.7911134840       10.1653386083       22.7971325103
 Hg        25.8564243270       13.2007548677       22.9341450812
 Hg        16.2930308993        7.2817225243       13.1154094344
 Hg        22.6281978845       16.2704984140       22.6379897594
 Hg        22.9215098192       25.9780788601       13.1116526778
 Hg        25.5844842416       16.5927309694       13.3329320726
 Hg        16.2418906018       13.4941647644        7.7012525466
 Hg        19.6734133987        7.7569838383       22.4672521852
 Hg        19.2289906666        7.3432584411       16.5518469501
 Hg         9.9208866813       28.9788694959       18.3192331656
 Hg        25.6007195689       19.4228809523       22.6321204661
 Hg        28.4036102039       21.9978809639       22.3141220492
 Hg        19.5391075422       10.1496498089       13.2682705499
 Hg        28.1643503850       13.4931327650       19.6916033806
 Hg        13.4727559740       28.1568813019       19.6902760782
 Hg         9.9843227582       17.8674607210        7.1134447082
 Hg         7.6132518774       22.6110966856       19.5821145059
 Hg         9.9818200776       25.8971717533       20.7142028478
 Hg        13.3185934043       16.3028449220       13.2312771430
 Hg        13.7485698163       22.2627880278        7.7405330158
 Hg        25.9166760580       22.9334510822       13.1018409030
 Hg        28.2544862196       19.0962325459       25.4085279406
 Hg        13.2300488284       19.4371147146       10.2376953712
 Hg        28.6655741010       19.3854798019       19.4528199646
 Hg        16.4421633727       16.4326198138       10.4874314313
 Hg        19.2626727812        8.0752859693       10.2602286019
 Hg        10.2600107034       10.2478721558       15.9694915997
 Hg         8.2303693349       25.8993291288       16.9810228092
 Hg        16.9797643795       10.0737100564       27.7117972490
 Hg        18.5773472177       26.8171556997       29.1240799168
 Hg        28.9938357922        9.9056204494       18.3070112393
 Se        17.8749881088       24.2706726935       24.1829063135
 Se        21.0349593159        8.7966416990       17.9020886830
 Se        21.2134098036       24.2692450607       14.7891613389
 Se        21.3425795420        8.3572571756       24.2942888060
 Se         8.8226191913       17.9180468801       20.9067346066
 Se        27.1764852623       18.0171736237       14.9384037974
 Se        27.0842264921       14.9274347711       11.6512924111
 Se        18.0262107019       14.8210320741       21.0813577616
 Se        14.8927229474       21.0823503177       11.6958964190
 Se        14.9909355537       18.0075999551        8.7756845187
 Se        24.3632819480       27.4694791711       14.7759691532
 Se        11.8467191879       14.7093455311       27.2570259096
 Se         8.3016715585       24.2140171713       21.4511061254
 Se        11.7353721701       14.8802712546       21.0145580901
 Se        24.3785779245       21.3167054472        8.4545722373
 Se        20.8770530953       24.2165261384       27.3958574398
 Se        24.1352350765       21.0741887275       21.1090167262
 Se        14.7657441776       24.2332588890       21.1430911474
 Se        17.8608633250       27.2133735998       21.1049118507
 Se        14.7455018556       11.6106902179        8.4349581932
 Se         8.8163291421       21.0521839143       17.8710806931
 Se         8.0169317208       27.5735918301       18.7846197378
 Se        21.2184235860       21.2130620353       11.6700994535
 Se        21.3187928621       24.3663259834        8.4431632292
 Se        17.9880336366       27.1875820251       14.8861916687
 Se        17.9726471477       14.8651250659       14.8100487827
 Se        14.7932414632       14.7772014354       11.6356634976
 Se        17.9907494553       17.9808328661       17.9625488214
 Se        11.7062724925       14.7745981187       14.6965254287
 Se        21.3789709349       27.5842322777       11.7129617082
 Se        21.1757606028        8.6469544797       11.7566023869
 Se        14.7522046897       21.1962394556       24.2432172023
 Se        21.0501765541       11.7863044429       14.8361608922
 Se         8.7097457091       18.4487594838       27.8174912522
 Se         8.7959929386       15.0335524092       17.9079510429
 Se        14.8436840958       21.1323680453       18.0042726899
 Se        17.9842829319       24.1422457897       17.9611188348
 Se        24.2579697710       14.7566464912       21.1579509294
 Se        24.3657677763       14.7623505532       27.5340736442
 Se        14.9058406505        8.7636994502       17.8663798564
 Se        18.0282072681       18.0145367642       11.8693072808
 Se        24.3181478991       27.3778843823       20.8527835375
 Se        14.6168985109        8.5011366807       11.6386063376
 Se        20.9197308156       18.0117410225       27.1348220805
 Se        11.6668615202       21.2006878655       21.1573622836
 Se        27.5975751777       11.9634734743       14.9766238159
 Se        27.8963308945       28.4529881635       17.6187421010
 Se        24.2174195813       20.8055608209       27.4228933266
 Se        24.1310592491       14.9268846565       14.8473111703
 Se        17.9437760621       21.1161304906       21.0888826361
 Se         8.7306541922       24.4053765224       15.0507308022
 Se        24.1479615208       24.2866874905       24.0715397144
 Se        14.8263891922       18.0316941087       21.0670965734
 Se        11.6901985170       17.8891958366       11.7107764308
 Se        17.9885077691       11.8311374195       17.9312684450
 Se        17.4163678307        8.1163288581        8.5923224060
 Se        11.6663785439       24.3176914940       18.0617647866
 Se        24.2242757863       17.8265335327       24.2338896030
 Se        14.8787754037       17.9528244407       14.7840590083
 Se        17.9770966356       20.9470002002       27.0994301594
 Se        14.8889917306       27.1039997960       17.8581918214
 Se        21.0601495703       21.0957192859       24.1948888464
 Se        21.1428274251       27.3356930464       24.1246346430
 Se        17.9051778547       11.6737796460       11.7158179580
 Se        18.0426825121       21.1398716816       14.8167772243
 Se        11.6568561301        8.8206850744       20.9719619041
 Se        11.7541260277       20.9335437089        8.5154083775
 Se        18.1163980051       11.6430015559       24.2660588625
 Se        24.1083420311       17.9904787134       17.9819527457
 Se        11.6856120245       27.5946906441       21.3972913559
 Se        27.1734850552       21.0581444621       18.0525723132
 Se        18.1872583411       24.2779185077       11.6415994478
 Se         8.7623255935        8.0137910695       17.3210673929
 Se        15.1624273761       24.2464151859        8.4766761893
 Se         8.1312396940       17.3909451368        8.5808140176
 Se         8.4397415151       11.5793289744       14.6818828146
 Se        27.6248037417       11.6934256670       21.3900935810
 Se        24.2670161655       21.2153706243       14.7937462255
 Se         8.5707528797       15.0293152757       24.1762822116
 Se        27.5816012292       21.4034954578       11.7521282463
 Se        21.0225832570       17.9554833053        8.7555911456
 Se        18.0385803631       14.9768953363        8.7901848185
 Se        15.0692579138       11.5830675324       27.1941523580
 Se         8.4194000112       21.1225929265       24.3634511806
 Se        14.8345262092       18.0386234983       27.1779997395
 Se        14.8472203454       14.9055151421       24.0863049819
 Se         8.5023312002       11.7235752623       20.7141318945
 Se        11.9108416711       27.5457247792       14.9501343996
 Se        17.8747682500        8.8347163286       21.0251963039
 Se        15.0108084770        8.4683383258       24.1007611730
 Se         8.6611359468       21.1707126734       11.7178518341
 Se        11.5571850387       24.3777950753       24.3472970897
 Se        24.3580915939       11.5847278396       24.3298781514
 Se        11.8892757804       17.9907149774       17.9135471567
 Se        11.6214625859       11.5014250375       11.5801489025
 Se        24.3065279456       18.1833282631       11.6678860662
 Se        14.6896181232       24.3150637085       27.5054943219
 Se        27.1729861657       17.9458123026       21.0592444781
 Se        11.8859810412       11.7512588862       24.1512401088
 Se        24.3948764669       24.4214783607       11.6193659489
 Se        27.9266532711       17.3959868571       27.2365349590
 Se        21.1417340235       18.0458568877       14.8187565536
 Se        21.1862737262       11.7084955370       21.1329206735
 Se        17.9270073545        8.7232531358       14.8287927299
 Se        11.6464998231        8.5045000402       14.6570174375
 Se        11.5337731783       21.2675877607       27.4337288495
 Se        24.2288634213        8.3507371076       21.4348135579
 Se        21.1816671690       14.7258615481       24.2509534462
 Se        14.9311568187       24.1325229767       14.8129542995
 Se        21.1060481670       17.9346533255       21.1119777284
 Se        24.3805173806        8.6728540592       15.0803144040
 Se        17.8898375845       14.9079425593       27.1179949454
 Se        14.8213686111       11.7571825634       14.7463591665
 Se         8.4851286223       14.6020931538       11.5723279699
 Se        21.0664924395       24.2131818556       21.0622623115
 Se        24.2111596454       11.7050626386       11.9121019182
 Se        21.0672092065       21.0875867942       17.9638303340
 Se        18.6803854530       27.9666012308        8.6375353331
 Se        11.7361671133       11.7489953680       17.7842812341
 Se        24.1937959698       24.1638940379       17.9382452534
 Se        21.1198164971       14.8332696372       18.0113244331
 Se         8.7392539138       17.9251547801       14.7982424600
 Se        11.8113338025       21.0349840375       14.8066820587
 Se        21.0986837117       14.8838817724       11.7166920779
 Se        27.1149316145       21.0698298675       24.2868684943
 Se        27.1081872640       14.9101049795       17.8677032784
 Se        24.3384069224       11.6613532869       18.0665231849
 Se        18.7685629287        8.3808827068       27.9216733468
 Se        21.0005846626       27.2445131678       17.9974999178
 Se        17.9724253348       17.9605341301       24.0391508398
 Se        27.5789609137        8.0138828164       18.7982223824
 Se        27.4769883604       14.6980765451       24.3479989132
 Se        27.4511983311       24.3894608313       14.7917705488
 Se        11.7678662329       18.0376327759       24.2259670672
 Se        27.6095270017       24.0711921321       20.9536080699
 Se        17.9776555723       20.9903374322        8.7389353251
 Se        17.3864132579       27.7980841762       27.2622003819
 Se        14.6226375966       27.3986116676       24.3834393964
 Se        11.7153103347       24.1985020120       11.8590785660
 Se        14.9208844818       27.0613245989       11.5867735435
 Se        14.8636559215       11.8031069852       20.9806737088
 Se        21.4504196274       11.7394969469       27.6474108650
 Se        24.2904473296       15.1481995198        8.5226805698
 Se        20.9794997526       11.7403232147        8.5439571487
 Se        27.9794540065       18.6792141574        8.6679131774
 Se        11.6246069576       14.7210847112        8.4408937217
 Se        14.8654761395       14.8816887320       17.9009635842
 Cl        24.3228652611       17.9203740895        5.7952381934
 Cl        29.9264013514       14.9537846082       20.9309604888
 Cl        21.0208871784        6.0849606059       21.0268878465
 Cl        26.4664503519       20.0334794140       30.8508848399
 Cl        18.1381954170        6.1262011643       11.8329032139
 Cl        30.2044521522       17.9712783961       18.0110996088
 Cl         6.1659057816       24.0988291492       17.8499762105
 Cl        11.8195608000       30.2742363853       18.0780878345
 Cl        15.1005921442        5.8957157306       14.9521619163
 Cl        29.9217476287       17.9364245652       11.9673518111
 Cl        11.3920271791        9.1729427283       27.0438790684
 Cl         4.9577285487       16.3051122966       25.9501688377
 Cl        20.7996049394       30.5193640722       20.5475081921
 Cl        15.0401643367       30.1507619928       14.8715859843
 Cl        17.8587376977       11.8620517456       29.7664360705
 Cl        14.9661658570        5.8535691067       20.9759866279
 Cl        19.5994414415       25.9730283294       30.9948593797
 Cl        18.0409734454       17.9378638481       30.2039257574
 Cl         5.9964807489       15.0277092549       14.9173215870
 Cl        11.8497645275       17.9763473232        5.7374053744
 Cl        24.0181608895       29.9559129768       18.0684114678
 Cl        18.0463565844       18.0127509177        5.6897998257
 Cl        17.9301589451       24.3126712452        5.7614552251
 Cl        30.0066223718       20.9627103583       15.0657681348
 Cl        17.8948120633       30.1955953072       17.9131134563
 Cl        27.0154206357        9.0484617560       11.3199751228
 Cl         6.0667923233       20.9718669376       20.8975265716
 Cl        30.3041593777       11.7906551224       18.0624134920
 Cl        18.0292035172        5.7761056854       18.1258481756
 Cl         5.5063209759       20.9448382391       15.3645834792
 Cl        18.0797851893        5.6715423321       24.1197295262
 Cl        21.0378947221       20.9754163727       30.0627149315
 Cl        14.9751555327       20.8812607510       29.9388977168
 Cl        24.0947351208        6.1371546369       17.9051936258
 Cl        18.0374859918       11.8317982166        5.7534459110
 Cl         5.7322021160       18.0043688732       17.9854174804
 Cl        18.0567110524       29.8824791083       23.9845995685
 Cl         6.1394308393       18.1149157900       11.7998527705
 Cl         5.1891260830        9.2053268073       20.1449848180
 Cl        14.9324255698       29.9074467280       20.9639218405
 Cl        15.0491554578       15.0161953057        5.9829239422
 Cl        17.9272744519       29.9294657773       11.9325820369
 Cl        26.8968499587       26.9584207824       24.6056701148
 Cl        20.9543841633       30.0516537041       15.0173621716
 Cl        30.1906971940       15.1189181982       14.9774581630
 Cl        30.0214906809       18.0596468536       23.8580422209
 Cl        30.1817554095       20.9127301383       20.9552828958
 Cl        30.1917536208       24.3203712488       17.7978813054
 Cl        15.4063390019       15.0337508286       30.4320678521
 Cl        15.0110020252       21.0275302036        5.8414747150
 Cl        11.9924034183       17.7643074589       29.8553367037
 Cl        20.9391621939       14.9668826323       29.8861253250
 Cl         5.8943236324       14.9072227568       20.9576702176
 Cl        12.1981517293        5.8633889396       17.9870592184
 Cl        21.0774160011       14.9918588021        5.8696610928
 Cl        20.9185993508        5.4551336373       15.4437883627
 Cl        21.0641725937       21.0336709902        6.0368139289
 Cl         8.9523299710       26.9323065508       11.3305148565
