     608
 i =       58, E =    -22856.4139654370
 Ga         7.1924848536        9.8876891312       15.9094785490
 Ga         7.2807843598       12.8947272591       13.1422740696
 Ga         6.9612528440       13.0513182210       18.9772374271
 Ga         7.2041341780       15.8296042444        9.8146190761
 Ga         7.1347436970       15.9823128933       16.0646984678
 Ga         6.9536406940       16.0712713902       22.0028948701
 Ga         6.9576556392       18.8376549502       13.0603131262
 Ga         7.1365195808       18.9932500084       19.0788555864
 Ga         6.9576281024       19.0969312209       25.0224500919
 Ga         6.8857863078       21.8453720083       16.1485944260
 Ga         7.2000042125       22.0121709522       22.0952940886
 Ga         7.0461920978       22.2590575726       28.1090750952
 Ga         6.8878641354       24.8652548794       19.1678665306
 Ga         7.3501350436       25.1687337671       25.1770757623
 Ga         7.0386843276       27.9504360560       22.2557888376
 Ga         9.8933984053        7.1245244331       15.9109383892
 Ga         9.9624633294        9.8970195485       13.5352052179
 Ga         9.9674122997        9.9633698115       19.0703555021
 Ga        10.1407637152       13.1494713092        9.6606523754
 Ga        10.0446684840       12.9787683511       16.1516463349
 Ga         9.8932940240       12.9007560001       22.0841168667
 Ga         9.9711300456       15.7435959717        7.1209905637
 Ga         9.9812381283       15.9969645309       12.9756830237
 Ga         9.9771849608       15.9198330859       19.0815485663
 Ga         9.8255291055       15.9292717491       25.1686769577
 Ga         9.9633587624       18.9862080818        9.9657900480
 Ga         9.9710128781       18.9976004459       15.9891801950
 Ga         9.9795128394       18.9218628748       22.0917633582
 Ga         9.8881555503       19.0112293774       28.1088196700
 Ga         9.8180442127       22.0028011127       12.9800100236
 Ga         9.9732981044       22.0044707584       18.9976945220
 Ga         9.9788190443       21.9362031689       25.0956417348
 Ga         9.8817253834       22.2601922865       30.8807912890
 Ga         9.8158736092       24.9484723124       15.9922449277
 Ga         9.9748649006       24.9480480546       21.9415758078
 Ga         9.8261527298       25.0962423340       28.1045680015
 Ga         9.8794276779       27.9521858772       19.0049239537
 Ga         9.6570779727       27.7920697561       24.8585648660
 Ga         9.7352248365       30.7253709290       22.1698602920
 Ga        12.9055304778        7.2783484899       13.1413762309
 Ga        13.0568914539        6.9652607907       18.9846688175
 Ga        13.1563744728       10.1434729644        9.6631643073
 Ga        12.9841950522       10.0403630513       16.1541549035
 Ga        12.9101294399        9.8980576454       22.0822751046
 Ga        12.8208137072       12.8205212806        7.4312133010
 Ga        12.9902857228       12.9838817559       12.9693623099
 Ga        12.9824690037       12.9762008803       19.1453489802
 Ga        13.2201776769       13.2153728236       24.8483243171
 Ga        12.9715981746       16.0573348357       10.0525560137
 Ga        12.9799292370       15.9923128083       15.9984224544
 Ga        12.9145513339       15.9224560547       22.0847028778
 Ga        12.8372020651       15.9938761989       28.1237330963
 Ga        13.0559998535       18.8356084600        6.9667984752
 Ga        12.9006521184       19.0691656404       12.9786052544
 Ga        12.9163779113       18.9917739983       19.0061876707
 Ga        12.9040769583       18.9217897588       25.0881830168
 Ga        12.9825483504       19.1583627763       31.0365953277
 Ga        12.9005475846       22.0026303698        9.8942459829
 Ga        12.8982505140       22.0156674095       15.9240931743
 Ga        12.9718188071       21.9328365949       22.0110253519
 Ga        12.8979742448       21.9475685501       27.9509962415
 Ga        12.8215301161       25.0191126744       12.9081020613
 Ga        12.9016198291       25.0143763638       18.9232962510
 Ga        12.8989667673       24.9440325169       25.0243757073
 Ga        12.7471273622       25.1788701361       30.6326040022
 Ga        12.8259923768       28.0279379689       15.9268030441
 Ga        12.8938980317       27.9358181919       21.9312339947
 Ga        13.0590872490       27.8608592580       28.2641048417
 Ga        12.9084419678       30.9570858896       19.0883761572
 Ga        12.8993820811       30.6410626365       25.0174258100
 Ga        15.9049596305        7.2676315211        9.8132570809
 Ga        15.9864204709        7.1403235603       16.0658864862
 Ga        16.0748341639        6.9579689936       22.0037822799
 Ga        15.7440255647        9.9733196116        7.1195852339
 Ga        16.0627364177        9.9853895894       12.9796744711
 Ga        15.9843908012        9.9804298381       19.0814010739
 Ga        15.9925443697        9.8952797263       25.1014551584
 Ga        16.0538593486       12.9688528291       10.0532276764
 Ga        15.9952772586       12.9774473021       15.9998099540
 Ga        15.9850964224       12.9791149248       22.0781301558
 Ga        15.9929728699       12.9035763388       28.1107731424
 Ga        15.9113683514       15.9120740049        7.2131340598
 Ga        15.9862437645       15.9913169438       13.0523684513
 Ga        15.9851681959       15.9888533030       19.0068454262
 Ga        15.9208335096       15.9289962997       25.0850206914
 Ga        16.0614391966       16.0759188741       31.0399586760
 Ga        15.9130974590       19.0030295253       10.0481929491
 Ga        15.9193200602       19.0012902071       15.9953856237
 Ga        15.9238891196       18.9317383312       22.0768258326
 Ga        15.9066430007       18.9286691182       28.0201330368
 Ga        16.0702068161       21.8497298731        6.9661860804
 Ga        15.8460712597       22.0742452371       12.9727704832
 Ga        15.9157277118       22.0037020337       18.9986666378
 Ga        15.9281874911       21.9937709616       25.0176437252
 Ga        15.8395311527       22.0830279654       30.7882308226
 Ga        15.8489302958       25.0190114115        9.8989361797
 Ga        15.8390211647       25.0162316180       15.9217024386
 Ga        15.9192295421       24.9479850715       22.0053608733
 Ga        15.9846668968       25.0173564750       27.9518334724
 Ga        15.8467621610       28.0343280642       12.9792847850
 Ga        15.9007228192       27.9472343933       18.9324312898
 Ga        15.9890341727       27.9381476323       25.0250869512
 Ga        15.6655182468       28.0292251608       30.8790991489
 Ga        15.9957243235       30.9632702595       16.1394496847
 Ga        15.9067600262       30.7900024685       22.0073597133
 Ga        15.7484832207       30.8002827376       28.1126438622
 Ga        18.9080675021        6.9565058619       13.1238515291
 Ga        19.0046389714        7.1378385160       19.0829067434
 Ga        19.1628068441        6.9641607954       25.0197153379
 Ga        18.9949020676        9.9699086593        9.9698685798
 Ga        19.0640693333        9.9786449912       15.9930375772
 Ga        18.9366937893        9.9803171810       22.0859399336
 Ga        19.0057339825        9.9667601678       28.0424803407
 Ga        18.8314740125       13.0531065699        6.9675630177
 Ga        19.0737428523       12.9690509171       12.9855088469
 Ga        18.9994036743       12.9793696013       19.0009367874
 Ga        18.9293090745       12.9803270182       25.0237494069
 Ga        19.0950225213       13.0557752489       31.0351728959
 Ga        18.9967318362       15.9156195022       10.0484859301
 Ga        19.0064650665       15.9841676248       15.9916530761
 Ga        18.9945228426       15.9929665188       22.0112195256
 Ga        18.9272258596       15.9812288194       28.0132093538
 Ga        18.9211445345       18.9309813141        7.2141297610
 Ga        18.9284794569       18.9982396075       12.9913037766
 Ga        18.9317558968       18.9967273203       18.9996698023
 Ga        18.9898338260       19.0007118223       25.0147199098
 Ga        18.9235330589       19.0047257138       30.7963966526
 Ga        18.9139898291       22.0099434127       10.0490088454
 Ga        18.9210008268       22.0026057954       15.9931870849
 Ga        18.9854505341       22.0026647170       22.0156883632
 Ga        18.9861496916       22.0133811115       28.0179662192
 Ga        19.0104944843       24.9394899132        7.0331892648
 Ga        18.8424925523       25.0197870575       12.9755782058
 Ga        18.9224963312       25.0086309276       19.0000180094
 Ga        18.9979238144       25.0199311632       25.0249485255
 Ga        18.7588943763       24.9426396004       31.0334748278
 Ga        18.8561101972       28.0293795505        9.9761172768
 Ga        18.9150127602       27.9497321505       15.9851657576
 Ga        18.9863703044       27.9472858910       22.0118817591
 Ga        18.9171495446       28.0250671318       28.0334962446
 Ga        19.0033651101       30.9603185048       13.0662116627
 Ga        18.9230040314       30.7851973299       19.0021680030
 Ga        18.8238438511       30.9711608544       24.9432732171
 Ga        21.9255589736        6.8894388959       16.1561513350
 Ga        22.0808156645        7.2114610254       22.1610371733
 Ga        22.2567776843        7.1175309073       28.1061274546
 Ga        22.0107396444        9.8889095114       12.9769206813
 Ga        22.0101257260        9.9746607458       19.0031828687
 Ga        21.9360580934       10.0477512130       25.0859415243
 Ga        22.1677989346        9.8894168415       30.8076822382
 Ga        22.0093982664       12.9059975932        9.8963066139
 Ga        22.0790529959       12.9080383143       15.9191489729
 Ga        22.0034731441       12.9795893976       22.0116752197
 Ga        21.9253911453       12.9761329346       27.9506619052
 Ga        21.7779280531       16.0690882355        6.9645280146
 Ga        22.0725845024       15.9046010200       12.9140993167
 Ga        22.0076815005       15.9267108485       18.9937405125
 Ga        22.0011396374       15.9955047012       25.0169966432
 Ga        22.0051831122       15.9916781373       30.7966661703
 Ga        21.9340301630       18.9236699182       10.0494592804
 Ga        21.9991744569       18.9286952952       15.9911083826
 Ga        22.0065610639       19.0036866592       22.0125798549
 Ga        22.0134332157       19.0710061749       28.0177515381
 Ga        21.9293495619       22.0013363080        7.2072704018
 Ga        21.9308400054       21.9912204061       13.0543160988
 Ga        21.9383154885       22.0067657910       19.0664252875
 Ga        22.0127417127       22.0785439280       25.0867054647
 Ga        21.8477264982       21.9256592242       31.0402894400
 Ga        21.8516228770       25.0340403002       10.0573332527
 Ga        21.9312812583       24.9482167870       16.0007597083
 Ga        22.0094619576       25.0200824953       22.0832669689
 Ga        21.9324713439       25.0278314876       28.1040888184
 Ga        22.0949785749       28.1110799228        7.2726855225
 Ga        21.8563361085       27.9487839506       12.9817968777
 Ga        22.0029051883       27.9505860037       19.0693934354
 Ga        21.9326075312       28.0974953007       25.0299036415
 Ga        22.0948993635       30.8848398356        9.9790947789
 Ga        21.9354902341       30.7847925635       15.9867844854
 Ga        21.8416302666       31.0362584012       21.9226187120
 Ga        24.9409919818        6.9605482917       19.2392566335
 Ga        25.1740908884        7.3654084931       25.2552841664
 Ga        25.0216312394        9.8204097709       15.9982634073
 Ga        25.0233275949       10.0500924201       22.0201965194
 Ga        24.8615436914        9.7375089798       27.8793958924
 Ga        25.0872128723       12.8329197954       12.9087220611
 Ga        25.0211654185       12.9078468821       18.9278675712
 Ga        25.0245369956       12.9788393202       25.0142392756
 Ga        24.9509591998       12.9799422222       30.7130780800
 Ga        25.0168214604       15.9118275869        9.8919657990
 Ga        25.0183519990       15.9064124307       15.9194232101
 Ga        24.9502461438       15.9855800027       22.0049177115
 Ga        25.0297799916       16.0713518435       27.9483214562
 Ga        24.7828917378       19.0126076921        7.0339528795
 Ga        25.0209826196       18.8510720766       12.9094243477
 Ga        25.0028283240       18.9930678620       19.0021817073
 Ga        25.0158835924       19.0808719841       25.0237395032
 Ga        24.9367038565       18.9144235061       31.0334601743
 Ga        24.8576557109       21.9307009248       10.0619838440
 Ga        24.9397787277       21.9317219132       16.0595717380
 Ga        25.0111558796       22.0794995404       22.0841125153
 Ga        25.0170567440       22.0777625396       28.1022077828
 Ga        25.0222265762       24.8697695020        7.2705799289
 Ga        24.9345368441       25.0246098305       13.0447670464
 Ga        25.0094762651       25.0197434233       19.0811015299
 Ga        25.0118816426       25.0962489423       25.0963418103
 Ga        24.6969381766       28.4123826903       10.2201641168
 Ga        24.9360830052       27.9533609716       16.0676016921
 Ga        24.9479453634       28.1016043755       22.0788784293
 Ga        25.0220367221       30.6434605971       12.8989815973
 Ga        24.8600146435       31.0317387275       18.9064147656
 Ga        28.0352515851        7.1175648350       22.3383589734
 Ga        28.0266861121        9.8952456207       19.0798525664
 Ga        28.0942502225        9.8964416533       25.1740992793
 Ga        28.0349224301       12.8968772147       15.9960547984
 Ga        27.9381683665       12.9090135825       22.0100082598
 Ga        28.3325595804       13.1462743201       27.8691423537
 Ga        28.1023693127       15.8442731278       12.9789601019
 Ga        27.9453448561       15.9070375036       19.0019887534
 Ga        27.9476934775       16.0645437660       25.0234791949
 Ga        28.1133780566       15.8995754647       30.7976950522
 Ga        27.8757286836       19.1583163458       10.0404539330
 Ga        27.9439915943       18.8525171330       15.9908428704
 Ga        27.9479391186       19.0012666605       22.0158369086
 Ga        28.0288997608       19.0575430453       28.0253874205
 Ga        28.4427708220       21.3710466730        7.3626541058
 Ga        27.8667753889       21.8545110313       13.0619106302
 Ga        27.9472074020       22.0111086147       19.0703284453
 Ga        28.0329805101       22.0739406810       25.0233404589
 Ga        28.0262789222       24.3031301000        9.8848736380
 Ga        27.8767951325       25.0241248333       16.0692471959
 Ga        28.0273844790       25.0924285458       22.0746744922
 Ga        27.7064776967       28.4175060632       13.2258714015
 Ga        27.9474548116       28.0331751091       19.0015405930
 Ga        27.9418072365       30.8889809106       15.8214729965
 Ga        30.8140900402        9.8888568873       22.3301930344
 Ga        30.9606672341       12.9790324323       19.1682168814
 Ga        30.5678178683       12.8248359581       25.1810237100
 Ga        31.0313330312       15.9915910342       16.1543180994
 Ga        30.7842904808       15.9122049544       22.0861909904
 Ga        30.8787728149       15.7516366928       28.0268739753
 Ga        30.9579096512       19.0058565358       13.1397179268
 Ga        30.7811243462       18.9225884212       19.0040947984
 Ga        30.9593716655       18.9055943218       24.9428636317
 Ga        30.8857349251       22.0147592605       10.0432756023
 Ga        30.7171378127       21.9392146604       15.9933791013
 Ga        30.9668230557       21.8531829256       21.8592957827
 Ga        30.6377944015       24.8567561207       12.8988221867
 Ga        30.9562868977       24.9367102262       18.9100139464
 Ga        30.6446215775       28.1878923054       15.9042265676
 Sb         8.2278188734        8.1983565224       14.2391899773
 Sb         8.4530984196       11.4779969860       17.5195303926
 Sb         8.2539687328       14.1203005491        8.2189024237
 Sb         8.6200009760       14.4767752130       14.5821610254
 Sb         8.4040275954       14.4835028557       20.5486300191
 Sb         8.4295086040       17.4021789663       11.4728737364
 Sb         8.5520084682       17.4764864643       17.5587912234
 Sb         8.3959430065       17.4961893177       23.5706504299
 Sb         8.3538798985       20.4143108093       14.5466475884
 Sb         8.5694260214       20.4773096794       20.5647332809
 Sb         8.3835188869       20.5609832169       26.5923007589
 Sb         8.3403985338       23.4184030069       17.5780775070
 Sb         8.5868866277       23.5185124146       23.5880721805
 Sb         8.2231678765       23.8614134719       29.7387945546
 Sb         8.3767518640       26.4490212178       20.5744501588
 Sb         8.3423769472       26.8028173204       26.8132533604
 Sb         8.1664588797       29.6408301498       23.8604624812
 Sb        11.4753972504        8.4339266877       17.5138893025
 Sb        11.1452768972       11.1399796143        8.4159710139
 Sb        11.5615352206       11.5522453165       14.6161882681
 Sb        11.4473818888       11.4440906981       20.5783863642
 Sb        11.4570608766       14.4666289058       11.4899199805
 Sb        11.5349034982       14.4914059514       17.5852612578
 Sb        11.3478083451       14.4553559445       23.5917198224
 Sb        11.4659289307       17.4130389631        8.4528621320
 Sb        11.4664183824       17.4884505042       14.4933223479
 Sb        11.4609978317       17.4507399652       20.5495627585
 Sb        11.3588782769       17.4733894598       26.6007403566
 Sb        11.3875896304       20.5268191064       11.4572947905
 Sb        11.4500392564       20.4971111057       17.4834229710
 Sb        11.4679190840       20.4513258199       23.5527969619
 Sb        11.4142610711       20.5820099107       29.5665699013
 Sb        11.3427031322       23.4933646457       14.4593399074
 Sb        11.4984148877       23.4618335863       20.4810993313
 Sb        11.3781563581       23.5292277229       26.5727523325
 Sb        11.3519960037       26.4900364201       17.4558092043
 Sb        11.4377761188       26.4543048258       23.4808741391
 Sb        11.1263597180       26.8081319500       29.5893192813
 Sb        11.3694916845       29.4910617797       20.5551042714
 Sb        14.1462344443        8.2560609185        8.2368867860
 Sb        14.4951274266        8.6297482160       14.5735716410
 Sb        14.5068322597        8.4178462750       20.5421504103
 Sb        14.4871213906       11.4440140487       11.5014534048
 Sb        14.5091397019       11.5223710300       17.5953230350
 Sb        14.4901973356       11.3903244839       23.5478851485
 Sb        14.4259711741       14.4259675207        8.6630164528
 Sb        14.4681130848       14.4650666023       14.5107688123
 Sb        14.4894141924       14.4927631276       20.5752113917
 Sb        14.4550704920       14.4813544426       26.6853709815
 Sb        14.4520394429       17.5086221904       11.5752805595
 Sb        14.4498949013       17.4875519117       17.5172298145
 Sb        14.4145143147       17.4294304426       23.5797365187
 Sb        14.4361723060       17.5145692853       29.6177049692
 Sb        14.4764372151       20.4228775964        8.4263249629
 Sb        14.4257700217       20.5080789373       14.4832403333
 Sb        14.4619365382       20.4429597575       20.5117480483
 Sb        14.4402485277       20.4505917357       26.5078375649
 Sb        14.3634677785       23.5182839084       11.4114176857
 Sb        14.4071814456       23.4838975199       17.4614895919
 Sb        14.4239954863       23.4687213568       23.5140172226
 Sb        14.3571073122       23.5655832722       29.3623302284
 Sb        14.3365391907       26.5207333194       14.4392796676
 Sb        14.4335834642       26.4471120091       20.4636567313
 Sb        14.4248468747       26.4833981643       26.4845863749
 Sb        14.3880285186       29.5089229357       17.5259033444
 Sb        14.4280266920       29.3244486777       23.4891298732
 Sb        14.0759035024       29.7218908396       29.7208900587
 Sb        17.4728481428        8.4244624565       11.5066252074
 Sb        17.5126712538        8.5559265174       17.5445529206
 Sb        17.5342740149        8.3912045843       23.5653421151
 Sb        17.4129783591       11.4640607389        8.4549288269
 Sb        17.5309456294       11.4826129738       14.5062234360
 Sb        17.4883585232       11.4907308322       20.5470282335
 Sb        17.4858684723       11.4525911502       26.5531738536
 Sb        17.4934694628       14.4674530216       11.5689768912
 Sb        17.4882404441       14.4819547048       17.4988056748
 Sb        17.4642188970       14.5056809026       23.5409387840
 Sb        17.5081750979       14.5013570088       29.5926986057
 Sb        17.4242990715       17.4277005927        8.6294812643
 Sb        17.4673471221       17.4971037130       14.5311384386
 Sb        17.4584620945       17.4840238286       20.5294726202
 Sb        17.4503376938       17.4855885598       26.5125633409
 Sb        17.4030367049       20.5169993494       11.5322283096
 Sb        17.4245019502       20.4976365584       17.4966081786
 Sb        17.4539139170       20.4891605559       23.5180879054
 Sb        17.3937614840       20.5207959514       29.4314446703
 Sb        17.4615529479       23.4491090356        8.4514804722
 Sb        17.3932829479       23.5001834942       14.4876984422
 Sb        17.4482139433       23.4782177138       20.5032544984
 Sb        17.4758118786       23.4889774533       26.4883131925
 Sb        17.3552680354       26.5191884546       11.4483874059
 Sb        17.4037985886       26.4522314436       17.4555447102
 Sb        17.4584875290       26.4530164097       23.4890467241
 Sb        17.3481602443       26.5267602443       29.5455103537
 Sb        17.4412900818       29.5165506518       14.5369580930
 Sb        17.4169170814       29.3699112442       20.4964703131
 Sb        17.3632147518       29.5304881732       26.5105297692
 Sb        20.4903862648        8.3732703237       14.5646671339
 Sb        20.5119968971        8.5489544902       20.5889754722
 Sb        20.5778812528        8.4489836386       26.5859663512
 Sb        20.5146041391       11.4313950024       11.4634164994
 Sb        20.5277997864       11.4871758662       17.4934222135
 Sb        20.4619495968       11.5077671710       23.5296553896
 Sb        20.5435741411       11.4955683160       29.5536779466
 Sb        20.4050878718       14.4675652831        8.4371527962
 Sb        20.5437795069       14.4701629040       14.4874866605
 Sb        20.4864311868       14.4710970695       20.5164059780
 Sb        20.4425325203       14.5108714407       26.4912071606
 Sb        20.4540653141       17.4395606283       11.5424687677
 Sb        20.4816612841       17.4665952392       17.5221753672
 Sb        20.4947864366       17.4976660061       23.5135462734
 Sb        20.4742124546       17.5103237809       29.4189181911
 Sb        20.4281680940       20.4695700748        8.6068318936
 Sb        20.4449766155       20.4631179499       14.5281912107
 Sb        20.4530254745       20.4739719301       20.5217591666
 Sb        20.4826271192       20.5229362047       26.5169288864
 Sb        20.4150660263       23.4910744903       11.5527037667
 Sb        20.4309513420       23.4779972647       17.5182941557
 Sb        20.4833530302       23.5034441397       23.5332053535
 Sb        20.3778554297       23.4922108255       29.6078372069
 Sb        20.4538982912       26.5193829412        8.4913070875
 Sb        20.4080623534       26.4395775451       14.4940947015
 Sb        20.4746923689       26.4527956666       20.5210033635
 Sb        20.4526431191       26.5469614178       26.5481991259
 Sb        20.4538863837       29.5189577340       11.4782151954
 Sb        20.4541455763       29.3685874937       17.5173384513
 Sb        20.3882657252       29.5621401362       23.4612485481
 Sb        23.4749124782        8.3605373848       17.6011393321
 Sb        23.5623903654        8.6385939575       23.6383771197
 Sb        23.8564070059        8.2892654417       29.7575626284
 Sb        23.5564300778       11.3548952103       14.4575657451
 Sb        23.4964608977       11.4904625051       20.4931018689
 Sb        23.4948680102       11.5145519723       26.5277493313
 Sb        23.5483702949       14.3827473781       11.4026159118
 Sb        23.5112747077       14.4363300249       17.4568086937
 Sb        23.4882899294       14.4791809320       23.5284704283
 Sb        23.4814148835       14.5139076015       29.3390455135
 Sb        23.3611551455       17.4572521260        8.4677855531
 Sb        23.5024025100       17.4254169807       14.4554172020
 Sb        23.4780241315       17.4856933339       20.4884963331
 Sb        23.4847205838       17.5523019538       26.4911567172
 Sb        23.4159223979       20.4196620490       11.5568178636
 Sb        23.4288092882       20.4663338181       17.5414071719
 Sb        23.4756171116       20.5511815246       23.5338001395
 Sb        23.4660193635       20.5025168355       29.6061187872
 Sb        23.4008306149       23.5095528886        8.6559542232
 Sb        23.4747965597       23.4641493829       14.5270833002
 Sb        23.4779253943       23.5129214375       20.5435815186
 Sb        23.4928808994       23.5696498172       26.6040594284
 Sb        23.4423699385       26.5022980644       11.4949941533
 Sb        23.4534443401       26.4355195414       17.5333736905
 Sb        23.4666618325       26.5770994093       23.5654542453
 Sb        23.7325207541       29.7955886957        8.3004706358
 Sb        23.4390478382       29.3589800308       14.4797895545
 Sb        23.4240702064       29.5822509468       20.4865350245
 Sb        26.5054069153        8.4323964593       20.6593863314
 Sb        26.8014759229        8.4073706676       26.8777805791
 Sb        26.5381851921       11.3592084640       17.4968573975
 Sb        26.5433609343       11.4273406903       23.6039773208
 Sb        26.5449958544       14.3839666734       14.4538052199
 Sb        26.4400208888       14.4322617213       20.5082937226
 Sb        26.5086723555       14.5003007641       26.5231345302
 Sb        26.5902945652       17.3660319626       11.4142299997
 Sb        26.4468714280       17.4137192460       17.5048675797
 Sb        26.4376510690       17.5167619235       23.5051748308
 Sb        26.4978316420       17.4908814253       29.5357382565
 Sb        26.2941698716       20.5168739778        8.4988280223
 Sb        26.4009282697       20.3674072480       14.5404805788
 Sb        26.4458956974       20.5140845420       20.5418088068
 Sb        26.5187953805       20.5689987643       26.5493507623
 Sb        26.3650031820       23.3698430575       11.5892132630
 Sb        26.4333103256       23.4693047277       17.5396097158
 Sb        26.5209293463       23.5855882843       23.5576004742
 Sb        26.4567102011       26.5200111512       14.5051332264
 Sb        26.4830502778       26.5738683202       20.5575572527
 Sb        26.7037648798       29.6553480869       11.2212123153
 Sb        26.4286771630       29.5475701957       17.4539990653
 Sb        29.6855020632        8.2527237704       23.9467133058
 Sb        29.5199420617       11.4150936692       20.6293260572
 Sb        29.6153076981       11.1905278274       26.8491139812
 Sb        29.5331133993       14.4427122354       17.5718967111
 Sb        29.3398159169       14.4369164720       23.5670860542
 Sb        29.7264041563       14.1977803063       29.7560549217
 Sb        29.5507231989       17.4148847158       14.5654672547
 Sb        29.3859808820       17.4301946695       20.5317769580
 Sb        29.5246046821       17.4521519739       26.5362605542
 Sb        29.4880978953       20.5018259603       11.6080019264
 Sb        29.3381197150       20.4357408805       17.5152448389
 Sb        29.5089615995       20.4636727303       23.4691044663
 Sb        29.7750644295       23.4430971576        8.2207052702
 Sb        29.2687871191       23.4660288238       14.5138564923
 Sb        29.5153516498       23.4953511622       20.4855823724
 Sb        29.4631903983       26.5021321912       17.4617315727
 Sb        29.6353705624       29.7988965247       14.1868595275
 Cl         6.0414977956       11.4636376507       14.2683364443
 Cl         5.1646948913       12.2406641827       19.6936505218
 Cl         6.1292415657       13.7246800314       11.5313500508
 Cl         5.8729355036       14.6209837844       17.3332488273
 Cl         5.1586348104       15.2364716270       22.7011036889
 Cl         5.2425540082       16.4707865211        9.3828865932
 Cl         5.8566840526       17.1819333537       14.6853481533
 Cl         5.8732742984       17.6401626772       20.3622398378
 Cl         5.1585018505       18.2398954504       25.6901489770
 Cl         5.1322506151       19.5465097106       12.3063778724
 Cl         5.8145933341       20.2196793322       17.7480891467
 Cl         5.9109807831       20.6427781043       23.3485175796
 Cl         5.0755601973       22.5532613729       15.3588986692
 Cl         5.8637773679       23.2310822188       20.7377975448
 Cl         6.0216058260       23.7198305296       26.3470102671
 Cl         5.0824227154       25.5633999214       18.3552302881
 Cl         5.9775483823       26.2617889785       23.6663016673
 Cl         5.2897478421       28.6810648746       21.3027443287
 Cl         9.1971852211        5.3138234432       16.7464152256
 Cl         5.4045789903        9.1462547950       16.7626665678
 Cl         8.7425165837       11.4542444267       12.0117299019
 Cl         8.5959178325       11.7001305747       23.2571068254
 Cl         8.5525284212       14.6486642279       26.2731582240
 Cl         5.2338974994       21.3345030354       28.7110477245
 Cl         9.2486283137       16.6042254875        5.3271564834
 Cl         9.2525265746       21.3180026238       32.6767883963
 Cl         8.4383864552       23.0735310884       11.7801101462
 Cl         8.4540217818       26.0921023920       14.8337032680
 Cl         9.2117781516       32.6164075728       21.3764140229
 Cl        11.4733606689        6.0225871340       14.2460707172
 Cl        12.2648254191        5.1670180192       19.7175940703
 Cl        11.4682912647        8.7317028509       11.9852574034
 Cl        11.7349455322        8.6082731812       23.2849157445
 Cl         8.6087729812       29.2487468338       17.8916237526
 Cl        11.6483457838       14.2330350193        6.0745068212
 Cl        15.3096657823       15.2782246192       32.8319873546
 Cl        12.2730519378       18.3179648477       32.8276064166
 Cl        12.2917322564       19.5926827773        5.1647683832
 Cl        11.7177778308       23.0972056096        8.5175271688
 Cl        11.5974352415       23.7328053163       31.9629826863
 Cl        11.5914080635       26.2233838389       11.6766708287
 Cl        11.6650458622       29.3874255388       14.7924432114
 Cl        11.6544788646       29.2274229356       26.2850687895
 Cl        12.2027723253       32.7711440729       18.3083374147
 Cl        11.4145584858       31.8377823573       23.9614958810
 Cl        13.7453191873        6.1405532832       11.5302382715
 Cl        14.6387334454        5.8736744184       17.3385250983
 Cl        15.2568767605        5.1653369709       22.7261467572
 Cl        14.7171538027        8.6403482618       26.2443101332
 Cl        14.2355209600       11.6529068326        6.0724512794
 Cl        14.7636110446       11.7319032416       29.3832864370
 Cl        14.6424247303       17.2231335660        5.9015923488
 Cl        14.5981230859       20.7240998232       32.0966901862
 Cl        15.3115158143       22.6076544171        5.1618427716
 Cl        14.7448965094       26.1796820762        8.5144652055
 Cl        14.2568964543       26.3277723890       31.9564161352
 Cl        14.7498546486       29.4050003956       11.7887263902
 Cl        15.2584172253       32.7642600441       15.3466864624
 Cl        14.5777378404       32.0396873038       20.6993437716
 Cl        13.9502581250       31.8851711136       26.4662244404
 Cl        17.2212617867        5.8683826311       14.7026494349
 Cl        17.6422166435        5.8739453050       20.3595546286
 Cl        18.3045179065        5.1887559895       25.7447288742
 Cl        16.6078769467        9.2545359996        5.3257390106
 Cl        17.8275075225        8.7347697454       29.3180107949
 Cl        18.3140039457       12.3266656589       32.8406627599
 Cl        17.2268774517       14.6414758203        5.9042059778
 Cl        17.6503165524       17.6657746256       32.0980038988
 Cl        17.6478958359       20.2313055788        5.8951226914
 Cl        17.1943716953       23.3272299478       32.0971808072
 Cl        18.2635112868       25.6793534703        5.2178310269
 Cl        21.3896211399       28.6062218039        5.3404054823
 Cl        18.2432392553       32.7634237238       12.3073975898
 Cl        17.6202167462       32.0668078080       17.6969065403
 Cl        17.1977601925       32.0741031737       23.3057450277
 Cl        16.5414276870       32.6952783029       28.6227984983
 Cl        19.5996041223        5.1328603692       12.3502929496
 Cl        20.2560954388        5.8343957134       17.7492988520
 Cl        20.6997674303        5.9080079549       23.4040473705
 Cl        21.2984566703        5.3707940622       28.8308908832
 Cl        16.5261197605        5.3053471070        9.3455031536
 Cl        21.3207145219        9.3242653264       32.6667952171
 Cl        19.6038556659       12.2981081753        5.1684629426
 Cl        20.7084497919       14.6724932984       32.0850160508
 Cl        20.2156303229       17.6584422807        5.8866215771
 Cl        20.2361755321       20.2872657894       32.0986006174
 Cl        20.6593674237       23.3180967639        5.9256054616
 Cl        19.5652449760       25.6841667769       32.8257659960
 Cl        16.5922007638       28.7758161136       32.6340469562
 Cl        21.2186073264       32.6778942168        9.2780430624
 Cl        20.6138114390       32.0519755113       14.6880754801
 Cl        20.2220397072       32.0913953406       20.2880800541
 Cl        19.6073027171       32.7851693150       25.6513768797
 Cl        22.5997434732        5.0718931622       15.3586493277
 Cl        23.3048249536        5.8916341328       20.8108990335
 Cl        23.6519210413        6.0429573197       26.3949120027
 Cl        23.1000115978       11.7289138842        8.5117363016
 Cl        22.5772930643       15.3246132460        5.1713386481
 Cl        23.8617745832       11.5465770325       31.9495793842
 Cl        23.3091292307       17.2747368428       32.0923954249
 Cl        23.2431484907       20.6886023094        5.9393249436
 Cl        22.5899606849       22.6610993393       32.8608519396
 Cl        24.0678163612       26.5983965410        6.3282543903
 Cl        23.0758314582       26.2091196245       29.4477726932
 Cl        23.0809105133       29.4668728713       26.1735878780
 Cl        23.5915767225       31.9552476014       11.7041808736
 Cl        23.2391322535       32.0794709056       17.2886269860
 Cl        22.5971129018       32.8504243594       22.6523619729
 Cl        25.6277423762        5.1542569862       18.4120725881
 Cl        26.3040109312        6.0278937863       23.8093465228
 Cl        26.1436703617        8.4566650527       14.8247464478
 Cl        26.2988083630       11.6470652910       11.6455197219
 Cl        26.1902473921       11.6887350758       29.3120079780
 Cl        26.2022726129       14.8820745673        8.4602839387
 Cl        26.4313753869       14.0298134428       31.9090246095
 Cl        25.6125403006       18.2936824474        5.2474238515
 Cl        25.6592831336       19.6654052991       32.8539537231
 Cl        26.2912000412       23.8761569119        5.9042521526
 Cl        26.2028520584       23.2045093188       29.4490527104
 Cl        26.5459284374       25.8927198418        8.7533475472
 Cl         8.6180498204       20.0041728013        8.6678139595
 Cl        26.1641035175       29.4497857883       23.1737505677
 Cl        26.2215358413       31.9614848580       14.3198184489
 Cl        25.6259416521       32.8388003654       19.6441433436
 Cl        28.6567806005        5.3153484752       21.4036169661
 Cl        29.3899218197       11.7721324681       14.8079816481
 Cl        32.7381445739       18.2903811323       12.2906218697
 Cl        29.3451353211       19.1021172654        8.2756624187
 Cl        28.7438274738       20.9902291929        5.3110832356
 Cl        28.6109608807       16.6498787950       32.7111792628
 Cl        29.4259548890       23.1981406639       26.1610233159
 Cl        29.2416262120       25.8779552553       11.3370259792
 Cl        29.4298669733       26.2681401195       23.1389872361
 Cl        32.6161372227       28.6258001942       16.5145162735
 Cl        28.6602299629       32.6831685936       16.6823152026
 Cl        32.6129617994        9.2506975923       21.3963216841
 Cl        32.7639709938       12.2894475831       18.3398457443
 Cl        31.8979670959       11.6502477116       23.7526523744
 Cl        32.8289901696       15.2805300549       15.3400166558
 Cl        32.0537955755       14.6450994928       20.7292760353
 Cl        31.9141119749       14.3386631001       26.3280262702
 Cl        32.0926633642       17.6561829621       17.6877046806
 Cl        32.0532098501       17.2964719288       23.3210337728
 Cl        32.6418736193       16.6867031228       28.7454137704
 Cl        32.7176857783       21.1381098570        9.4530060816
 Cl        32.0249296074       20.6751354851       14.6638344058
 Cl        32.0672854545       20.2745141937       20.2531215403
 Cl        32.7618004382       19.7223894519       25.6459642901
 Cl        31.9690222145       23.6926005232       11.5891507331
 Cl        31.9992099275       23.2984913349       17.2344002057
 Cl        32.7778659097       22.6407162137       22.5801121780
 Cl        31.7216640979       26.5198867060       13.7107512793
 Cl        32.7908179008       25.6949671931       19.5813098720
 Cl        29.2951443312       20.1552336069       29.3331071282
 Cl        20.0233962711       29.3434352325       29.2842459084
 Cl        29.2997484274       29.3287024988       20.0173365982
 Cl         8.6725883640        8.6713077159       20.1558589111
 Cl        11.7083251235       14.6929069349       29.3641159456
 Cl         8.6446202453       17.8178120666       29.3561424149
 Cl        29.2810210015        8.6179628672       17.9313317557
 Cl        23.0751894060        8.5207963344       11.7509938215
 Cl        29.4623317657       14.8071752148       11.7224591783
 Cl        20.0281537516        8.6371244306        8.6719060632
 Cl        17.8005596349       29.3040149826        8.6445203790
 Cl        26.2524884327       26.3285770729       26.2882781708
