     381
 i =       32, E =    -13180.0689222716
 Zn        15.0193511817       20.9559036494       15.0081689792
 Zn        18.0658063464       23.9335056511       14.9283798526
 Zn        21.0423984520       26.8924356086       14.6802430299
 Zn        15.7653073743       23.6919628503        6.3520693055
 Zn         6.1068390639       11.9543865425       14.6860702160
 Zn         9.0731904398       14.9317888139       14.9303871417
 Zn        12.0405217168       17.9752169301       15.0110924425
 Zn        17.9799182057       20.9532908483       17.9769765715
 Zn        21.0341460190       23.9373550657       17.8211980682
 Zn        23.6836419830       26.5751679824       17.2432669976
 Zn        11.7125149197        8.7489239954       11.7098649351
 Zn         6.4271380659        9.2424988371       17.2398308297
 Zn         9.0021464880       11.9612698987       17.8886961723
 Zn        12.0394034059       14.9505376507       17.9815084552
 Zn        14.9454638784       17.9889674201       17.9917193230
 Zn        20.9646227904       20.9612929989       20.8798523532
 Zn        24.1876316373       24.2512619912       21.0385284840
 Zn        14.8564509645       11.8813561151       11.8820491863
 Zn         8.7516512879       14.5209178827        8.8159339399
 Zn         9.3225099035        9.3122352025       20.6346377681
 Zn        12.1176224538       12.0311899076       20.9591720024
 Zn        15.0251006420       15.0128032435       20.9511510467
 Zn        17.9862550972       17.9830848958       20.9510981336
 Zn        23.6877183847       20.6380591321       23.6735770966
 Zn        18.0786229567        9.0544143883       18.0693107731
 Zn        11.9618479370        8.7467852155       24.1872515590
 Zn        15.1716837373       11.9541602979       23.9297036510
 Zn        18.0698204081       14.9319019547       23.9213407967
 Zn        21.0377485113       17.8941500780       23.9275549259
 Zn        21.1206532042       11.8827453232       18.1412031894
 Zn        26.8977326951       14.6861577267       20.9632029245
 Zn        21.0229061283       15.0082566960       15.0046297679
 Zn        20.5520946211        6.2734079336       12.5461663386
 Zn        21.1121335411       21.1145746503       14.7770400472
 Zn        18.3227512294       11.9553025136       26.8258502714
 Zn        21.0493410962       14.6851062526       26.8213023823
 Zn        23.7583304458       17.2388149076       26.5681800300
 Zn        17.9907863989       15.0083548313       11.9742141508
 Zn        17.8338943445       15.1639350889        6.0332549718
 Zn         9.3849931715        6.4260874725       17.2511991857
 Zn        11.9578719060       14.6138331328        6.1044760617
 Zn        20.6354744559        9.3151927602        9.3111481858
 Zn        15.1584981357       17.8332683510        6.0355670249
 Zn        26.5703661007       23.6851467761       17.2511998572
 Zn        21.3640376943       11.7067333128       24.2481619771
 Zn        26.8927773692       18.3200236567       11.9530290656
 Zn        12.6188182366        6.2702360198       20.5392948442
 Zn        11.8852232673       11.8822848291       14.8539434994
 Zn        24.2506765861       18.4747968137        8.7438872307
 Zn        23.9394581780       14.9299422557       18.0605739442
 Zn        14.9347574903        9.0586983167       14.9281271709
 Zn        15.7603484378        6.3547015042       23.6859095340
 Zn        18.4713074006       24.2505278560        8.7427976166
 Zn        18.0551541629       17.9922248777       14.9332646014
 Zn        15.1739095596        6.0341129643       17.8353617755
 Zn        18.5487838025        8.7415247462       24.2521555672
 Zn         9.3147661152       20.6281244472        9.2419451803
 Zn        12.3643564145       23.6902466866        9.2479060706
 Zn        15.7517264177       26.5680440889        9.3091401512
 Zn         6.4313397378       17.2451043037        9.3104848118
 Zn        12.0413948456       20.9549098231       12.0414015825
 Zn        15.1061223097       24.0030333752       11.9656286625
 Zn        18.3140791801       26.8926655789       11.9572393248
 Zn        14.5240601713        8.7474370029        8.7480368508
 Zn         6.1080820005       14.6817041934       11.9615751051
 Zn         8.9940450391       17.8918972212       11.9716442008
 Zn        14.9296216231       23.9296390396       18.0568381051
 Zn        17.8349692386       26.9688174605       17.8182033378
 Zn         6.1016654677       15.1067648835       17.8970436841
 Zn         9.0711271301       18.0640540422       18.0638994433
 Zn        11.8854936379       21.1124903706       18.1486841168
 Zn        17.8965979264       24.0043846005       20.9580792012
 Zn        20.5394025733       26.7283472763       20.3784357922
 Zn         6.3495818406       12.5336886339       20.4620687549
 Zn         9.0709790475       15.1103230996       21.0312923604
 Zn        11.8864894748       18.1415545593       21.1148446778
 Zn        14.8569483926       21.1115575124       21.1079432632
 Zn        20.6366569360       23.6867203538       23.6735537619
 Zn        20.9545181074       17.9840248962       17.9201248094
 Zn        20.4604801699       12.5426463226        6.2730363556
 Zn        20.9633752449       12.0384856674       12.0465823534
 Zn        17.9919010654       11.9761714551       15.0079761173
 Zn         9.3253405328       12.3513595321       23.6855549663
 Zn        12.0399131064       15.1041899634       24.0029821202
 Zn        14.9384883866       18.0651644125       23.9272660336
 Zn        17.8912584485       21.0299347643       23.9310058606
 Zn        24.2536323447        8.8111880916       11.8821443426
 Zn        12.6215702773       12.4477643968       26.7236810881
 Zn        15.1752420931       15.1040146964       26.9674862515
 Zn        17.8943053389       17.8337677966       26.8967270988
 Zn        20.4646524478       20.4581795027       26.6489433574
 Zn        21.1189950615        6.1042621178       18.3094942734
 Zn        21.0463635885        8.9969605139       15.0970883693
 Zn        24.2537588997       24.2601116822       14.4480276562
 Zn        11.9773820816        8.9926585751       17.8943757749
 Zn         8.7486009837       11.6423511329       11.7089345869
 Zn        23.6872537653       12.3708293467        9.2400467904
 Zn        26.5701652488       15.7505943047        9.2449506299
 Zn        21.0328051094       15.1118043321        8.9903422515
 Zn        17.2396523510        9.3128415648        6.4244749574
 Zn        23.7546568519        6.4255995856       15.6671067082
 Zn        24.2577174943       14.5300496875       24.1759510013
 Zn        24.2607448364        8.7544849153       18.3982841603
 Zn        21.0363435601       18.3168733281        6.1022978555
 Zn        23.9383186772       18.0736414585       14.9250913726
 Zn        24.0032191593       11.9602198255       15.0976415484
 Zn        18.0702385914       18.0699484274        9.0602909572
 Zn        26.8946011377       21.1094118633       14.6763300199
 Zn        18.2112666839       11.8857540551       21.1086538904
 Zn        15.0204562108       11.9785387942       17.9879277103
 Zn        26.9680552436       15.1686910753       15.0999689088
 Zn         8.8027607739       24.1811512526       11.8820782945
 Zn        12.4527751419       26.7237027332       12.5393607954
 Zn         6.2746807212       20.4903982777       12.5493922616
 Zn        11.9636872921       23.9326054222       15.0960843465
 Zn        15.1015132673       26.9645208864       15.0990832023
 Zn        18.0578450896       14.9367792018       17.9938499883
 Zn        21.1167174258       18.1411702971       11.8778134410
 Zn         6.0413569287       17.8289752890       15.1690396468
 Zn         9.0621451749       21.0325210082       15.0964949509
 Zn        14.6805700367       26.8958719722       20.9680892451
 Zn         6.1073892274       18.3148936750       21.0360824910
 Zn         8.7495951534       21.2912066264       21.2866664745
 Zn        11.7067074668       24.2510584982       21.2835210938
 Zn        17.2481044187       26.5694390497       23.6095638858
 Zn        26.7296765503       12.4636432882       12.5337316497
 Zn        15.1784362222        8.9957860063       21.0367805278
 Zn        17.8886723694       11.9674530806        8.9936105272
 Zn        15.0100138277       17.9875331128       11.9757027063
 Zn        18.3138607424       21.0388770717        6.1032230593
 Zn        23.6843793706       15.8302088452        6.3494535462
 Zn         6.4263061013       15.7604805608       23.6851804102
 Zn         8.7472238712       18.4739151534       24.2523814779
 Zn        11.7068587586       21.2941465357       24.2392189941
 Zn        14.5277642366       24.2531566909       24.1772189430
 Zn        11.7093658642       11.7060441659        8.7540776253
 Zn        15.0070372246       14.9387852643       14.9356248114
 Zn         9.3200628953       15.6806272702       26.5686712615
 Zn        11.9618013621       18.3104992914       26.8258965395
 Zn        14.6890920213       21.0394065520       26.8196052469
 Zn        15.1100480508       21.0278895719        8.9939844691
 Zn        21.2870283263       21.2879948710        8.7450267533
 Zn        18.1387768922       21.1137418924       11.8806717363
 Zn        11.9638143368        6.1055967039       14.6846629377
 Zn        23.9360163484       21.0392755691       17.8254989410
 Zn        21.3667027848        8.7478291869       21.2875874890
 Zn        24.2589089402       11.7092090753       21.2772620845
 Zn        14.6898007262        6.1075881620       11.9615022943
 Zn        21.1173758072       14.8596677098       21.1057300394
 Zn        21.2906176203       24.2540901652       11.6393859330
 Zn        24.0056513451       15.1057220669       11.9610371123
 Zn        14.6866850850       11.9543526753        6.1061516733
 Zn        18.3902140757        6.1028973270       21.0401113053
 Zn        17.9028854395        6.0361320157       15.1622077597
 Zn         9.3168740190       26.5710398136       15.6715435214
 Zn        24.0055635907       17.8977389534       20.9544787375
 Zn        26.7230130741       20.5498958027       20.3788664925
 Zn        17.8906190463        8.9921328070       11.9700957671
 Zn        26.8961182398       11.9595820428       18.2392627787
 Zn        11.9536478333       26.8905806149       18.2401453430
 Zn         9.3093077400       17.1611575169        6.3543824742
 Zn         6.1104864707       21.0416699522       18.2452797414
 Zn         8.7432766630       24.2548834370       18.4724375219
 Zn        11.8855845289       14.8500075118       11.8900692472
 Zn        12.5385168262       20.4495713904        6.3374674367
 Zn        24.2531469887       21.2920178627       11.6380027859
 Zn        26.5740621900       17.2500129765       23.6038981922
 Zn        11.9702466813       17.8217953328        8.9917602569
 Zn        26.9688746042       17.9019014772       17.8184327608
 Zn        14.9299378635       14.9266945603        9.0618771134
 Zn        17.2463718951        6.4285659932        9.3150771855
 Zn         8.7508380765        8.7432712248       14.5264153952
 Zn         6.4280226908       23.6784072653       15.6696699941
 Zn        15.7518179990        9.3132059518       26.5672689025
 Zn        17.2367648991       23.6931380163       26.5660621387
 Zn        26.6516367761        9.3179367652       15.6723567188
 Te        16.3928881077       22.6857488100       22.6258249610
 Te        19.5569708406        7.4353753970       16.5766585315
 Te        19.6357644689       22.6723968003       13.3077328332
 Te        19.8945416311        7.1559816944       22.7570582783
 Te         7.4738928269       16.5553938215       19.5455218277
 Te        25.5556899147       16.5847644591       13.4501267302
 Te        25.6858881306       13.5266055173       10.3846412903
 Te        16.5656710323       13.4108725406       19.5566399759
 Te        13.4617108637       19.5060967928       10.3861031579
 Te        13.4764250962       16.3941022042        7.4107841383
 Te        22.7374670461       25.8480967119       13.1314374418
 Te        10.4735587174       13.4945463925       25.6809774257
 Te         7.1562485034       22.7385942140       19.7956636433
 Te        10.4453203602       13.4429662212       19.5264576393
 Te        22.7612592503       19.8157537059        7.1457062138
 Te        19.4684241851       22.5991205860       25.6713909986
 Te        22.5503074353       19.4975437328       19.4505062644
 Te        13.3552024573       22.6520006809       19.6467148762
 Te        16.4247481038       25.5635346061       19.4795323563
 Te        13.1782866633       10.2343190337        7.1543681135
 Te         7.4654363226       19.5063071406       16.5455001305
 Te         7.2097808320       25.7841433809       16.7649994880
 Te        19.6487348900       19.6491321029       10.3343956966
 Te        19.8133715808       22.7632229578        7.1460474407
 Te        16.5640772891       25.5609562580       13.4626770728
 Te        16.4820266026       13.4020877728       13.3958885671
 Te        13.3483788431       13.3450076464       10.3397739513
 Te        16.5121842162       16.4774895696       16.4729245926
 Te        10.3375884806       13.3329050848       13.3443615169
 Te        19.8051726718       25.8631809982       10.2028642105
 Te        19.4830379428        7.3041416966       10.4117237921
 Te        13.3541196979       19.6464028564       22.6528909297
 Te        19.5157322397       10.4183326721       13.4693927465
 Te         7.2058203014       16.7740141928       25.8177854392
 Te         7.4528142559       13.4582728692       16.4274120067
 Te        13.4243106996       19.5663959187       16.5384224615
 Te        16.4978251541       22.5135199659       16.4866793267
 Te        22.6587489404       13.3574878050       19.6413914233
 Te        22.8177973127       13.2038084332       25.8218638596
 Te        13.4875303778        7.4343199768       16.4253362257
 Te        16.5002695407       16.4954243218       10.4452960555
 Te        22.5666253699       25.5802441396       19.3877696004
 Te        13.1837819536        7.1537350771       10.2353962438
 Te        19.5532117749       16.4363274764       25.5031126443
 Te        10.3478398468       19.6390525192       19.6535046488
 Te        25.6210937041       10.4186569312       13.5260403538
 Te        25.7889826852       25.7909203157       16.1497740130
 Te        22.6095307512       19.4602590804       25.6680765356
 Te        22.5811109801       13.4865737985       13.4669312390
 Te        16.4351233565       19.5501271158       19.5493179988
 Te         7.4196246722       22.5458543218       13.5217545240
 Te        22.5507442949       22.5548800893       22.4344436206
 Te        13.4151602095       16.5244611081       19.5595482676
 Te        10.3145959260       16.3594911594       10.3348243933
 Te        16.5097791854       10.4497333841       16.4945465044
 Te        16.1983556650        7.1835682248        7.1827249932
 Te        10.3447542205       22.6474343977       16.6445315019
 Te        22.6966408824       16.3963861420       22.6258772729
 Te        13.4423595999       16.4433792458       13.4084465969
 Te        16.4590270568       19.5243645077       25.5230579541
 Te        13.4746946269       25.5337972998       16.5306422021
 Te        19.5311514087       19.5303123457       22.5254707965
 Te        19.4851290472       25.6838028562       22.5195355393
 Te        16.3825826315       10.3187849799       10.3138112337
 Te        16.5449910006       19.5523463790       13.4025802025
 Te        10.4568590983        7.2965267399       19.4960171138
 Te        10.3958102308       19.4149342444        7.2667035679
 Te        16.7081368972       10.3293332527       22.6436083177
 Te        22.5388692927       16.5016301354       16.4820821983
 Te        10.2558902626       25.8429835986       19.7898245824
 Te        25.5564096876       19.5511377222       16.3935408475
 Te        16.6103714105       22.6731150271       10.3099061387
 Te         7.2309130260        7.1332875732       16.2054016462
 Te        13.5350952301       22.6030860043        7.2591661572
 Te         7.1876308595       16.1606281450        7.1936260407
 Te         7.1372039123       10.2086974735       13.1893696679
 Te        25.8367004639       10.2584884917       19.7617821108
 Te        22.6699879911       19.6424155446       13.3074719124
 Te         7.3283872960       13.5253270396       22.6004409578
 Te        25.8622347322       19.8144404440       10.1990376345
 Te        19.5169601697       16.5691759086        7.4255860085
 Te        16.4286667658       13.4771332153        7.4281287594
 Te        13.5939114857       10.4111639880       25.5636161388
 Te         7.1549511959       19.8119428083       22.7642383569
 Te        13.5184852416       16.5608017541       25.5675496576
 Te        13.5303682889       13.4936838925       22.5532442688
 Te         7.3063015038       10.3748873614       19.4698554664
 Te        10.4236203754       25.5614786013       13.5236475493
 Te        16.6076457999        7.4125204430       19.5162470141
 Te        13.6100534357        7.3802517179       22.5837293340
 Te         7.3201721104       19.4692116355       10.4010906257
 Te        10.2122304655       22.7881052180       22.7769330926
 Te        22.8450848496       10.2084756281       22.7906875042
 Te        10.4920471749       16.4771751374       16.5052447162
 Te        10.2165229497       10.1869542360       10.1982007522
 Te        22.6796666917       16.6160063624       10.3043193115
 Te        13.1942869083       22.7813057647       25.7981005231
 Te        25.5752747289       16.4463312637       19.4677023171
 Te        10.5623868998       10.4371731911       22.5480830908
 Te        22.7938058933       22.7973116925       10.1575029391
 Te        25.8604650831       16.2016322868       25.7491590825
 Te        19.5921735916       16.5157961967       13.3936201245
 Te        19.6828328891       10.3295986070       19.6406213621
 Te        16.4425316641        7.4259636873       13.4848831567
 Te        10.2389126804        7.1549134979       13.1791365763
 Te        10.2299179665       19.8302838301       25.8328280003
 Te        22.8317701905        7.1644643987       19.8079882929
 Te        19.6839917995       13.3593662743       22.6617126124
 Te        13.5056810370       22.5426875837       13.4696217057
 Te        19.5761664273       16.4519759213       19.5428485391
 Te        22.6109989668        7.4085449397       13.5147367858
 Te        16.5839404626       13.4751279716       25.5290528137
 Te        13.3518344028       10.3383633689       13.3446951574
 Te         7.1500432487       13.1502845000       10.2559202660
 Te        19.5002408225       22.5558172096       19.4606740139
 Te        22.5665256632       10.4611382681       10.4985522847
 Te        19.5630798550       19.5762284455       16.4013403149
 Te        16.7894837745       25.8106724456        7.1665608313
 Te        10.3288372646       10.3137027761       16.3825378289
 Te        22.6523466527       22.6580009504       16.2772002540
 Te        19.5935118042       13.4080750088       16.5109498151
 Te         7.4389833853       16.4179328147       13.4787347468
 Te        10.4518600525       19.4851416960       13.4745148307
 Te        19.5308449106       13.4695110178       10.3974204072
 Te        25.6848118805       19.4899305789       22.5181605369
 Te        25.5632328270       13.5021440601       16.5269173646
 Te        22.6667353112       10.3414959256       16.6168272802
 Te        16.8446521284        7.2015228870       25.7799511769
 Te        19.5133730193       25.5588380028       16.4112433881
 Te        16.5076963973       16.5014377244       22.5085148491
 Te        25.8568310167        7.2132717621       16.7585136226
 Te        25.8698713625       13.1952843825       22.7131913676
 Te        25.8411865420       22.7725116145       13.1086319382
 Te        10.3617925140       16.6070795198       22.6958204406
 Te        25.5642277903       22.5880663656       19.4019380887
 Te        16.5663087035       19.5158055789        7.4273048688
 Te        16.2105235344       25.8131422267       25.7514941331
 Te        13.1875922299       25.8649853560       22.7196938188
 Te        10.4580097677       22.5338047941       10.4809423747
 Te        13.5133301089       25.6836957659       10.4018917245
 Te        13.5181990397       10.4010681889       19.5091406681
 Te        19.8789135011       10.2471705814       25.8354787471
 Te        22.6000233480       13.5615118797        7.2441983528
 Te        19.4798994839       10.4015967089        7.2870049044
 Te        25.8205224049       16.8297463317        7.1281215329
 Te        10.2107906047       13.1675015165        7.1823632465
 Te        13.4515282218       13.3987132043       16.4363566816
 Cl        22.3182576123       16.6463789867        4.8114291762
 Cl        28.1894422007       13.5289350797       19.4156359623
 Cl        19.5438282640        4.8177358073       19.4685581416
 Cl        22.3774448455       16.3947025146       28.0802878324
 Cl        16.3783210757        4.8731207486       10.6371603067
 Cl        28.2485646080       16.5330963547       16.4564209011
 Cl         4.8805386714       22.3503272882       16.5918059913
 Cl        10.6386338334       28.1222383456       16.5853970502
 Cl        13.5134848132        4.8131564607       13.5082634384
 Cl        28.1049556917       16.6214655181       10.5931874378
 Cl        10.5454204165        7.6202303683       25.3311046475
 Cl         4.8761054379       16.6033893405       22.3431183991
 Cl        19.2956930480       28.2166937189       19.3055376823
 Cl        13.6678281881       28.2257426745       13.6234680898
 Cl        16.6759983401       10.6485883705       28.0963082440
 Cl        13.6822929459        4.7816848935       19.2916032925
 Cl        16.3757191183       22.3493250263       28.0987631907
 Cl        16.5436969440       16.4947972098       28.2106483490
 Cl         4.8152565081       13.5101039060       13.5283342224
 Cl        10.6609366034       16.3137744018        4.8255112375
 Cl        22.3592644204       28.1266958851       16.3297214248
 Cl        16.4918566746       16.4951989193        4.7177295116
 Cl        16.6221216328       22.3327896816        4.8294437782
 Cl        28.1672350117       19.5104270508       13.4973420546
 Cl        16.4722533317       28.2463839660       16.4601680217
 Cl        25.3730285398        7.6640419230       10.4623623441
 Cl         4.8423824243       19.4599674434       19.4508285315
 Cl        28.1690368599       10.6694481792       16.5869238532
 Cl        16.5192839321        4.7388495190       16.4828608030
 Cl         4.7914517571       19.2691828962       13.6517207778
 Cl        16.7062266245        4.8476516283       22.3484336958
 Cl        19.3395274363       19.3189468341       28.1686926869
 Cl        13.5253146147       19.4888573269       28.1154147940
 Cl        22.4261156362        4.8961752836       16.6120637828
 Cl        16.3789552921       10.6442332132        4.8693174725
 Cl         4.7896650664       16.4553088228       16.5343540578
 Cl        16.3767269813       28.1287670021       22.2948074091
 Cl         4.8808400343       16.3642331022       10.6344229404
 Cl         4.8934172200       10.6042076433       16.3911041268
 Cl        13.5190582671       28.1847902468       19.4156561272
 Cl        13.5104643872       13.4856218969        4.7932595795
 Cl        16.6168421308       28.1246121171       10.6277835301
 Cl        25.3385629605       25.3830737848       22.4441353452
 Cl        19.4747398558       28.1852188237       13.5033802847
 Cl        28.2124002229       13.7116172772       13.6092007429
 Cl        28.1324545734       16.3872468561       22.2819374864
 Cl        28.2284721923       19.3339504564       19.2990427713
 Cl        28.1373833553       22.3855780454       16.3250775603
 Cl        13.6932612394       13.6788986302       28.2243740279
 Cl        13.6722775627       19.3162264936        4.8091784091
 Cl        10.6522475015       16.6111211665       28.0838839146
 Cl        19.4954001077       13.5378907191       28.1138108095
 Cl         4.8143655742       13.6481292678       19.3349920415
 Cl        10.6812406541        4.8547529859       16.3696856537
 Cl        19.3012037479       13.6762943723        4.7726627478
 Cl        19.3301450452        4.7879912619       13.6456017663
 Cl        19.4732790978       19.4783465259        4.8103999481
 Cl         7.6491025820       25.3148389143       10.4766762722
