      84
 i =      128, E =     -3032.4421053964
 Ga        16.7969434229       14.3122529752       11.5072250030
 Ga        13.8301158559       16.5713883079       11.0472121820
 Ga        16.4223948279       16.9502059749       13.9328198129
 Ga        16.8112166592       19.0571711320       10.5020571896
 Ga        13.9175148451       16.7845151399       16.8671652125
 Ga        16.9639969963        8.1038585439       16.7163414579
 Ga        13.8474185102       11.5990152871       11.2740560928
 Ga        19.4374489472       14.1526646063       14.3156233774
 Ga        16.7945876417       11.2652620536       13.9934337464
 Ga         8.6266467663       11.2743376856       11.1268010290
 Ga        14.4776761849       19.4391671739       14.0043691451
 Ga        16.7256998405       16.8076383654        8.4026560838
 Ga        14.0671719755       13.9317340273       19.4435446160
 Ga        11.3563362280       11.0304188194       14.0707077009
 Ga        11.1225621905       13.9254796723       11.5943153598
 Ga        14.2511744774       11.2016534112       16.7910370946
 Ga        11.0473351436       10.9654167564        8.6427402236
 Ga        11.1855278341       13.8313855422       16.8067151219
 Ga        19.3685726355       16.2428761925       10.8878430632
 Ga         8.6376679032       14.3747254011       13.6183753031
 Ga        14.2995177995       13.4574702715        8.7141165046
 Ga        14.0026600903       14.0148235077       14.2269486548
 Ga        16.9537939246       14.0745845309       16.8694266434
 Ga        16.3246754514       10.5834524419       19.2911149594
 Ga        11.3511790436       16.7955758296       14.2391690480
 Ga         8.9462102806       17.3504478195       16.3336958183
 Ga        10.9658572713       16.6526407016       19.2920779439
 Ga        14.0818988288        8.6317037408       13.9096780347
 Ga        19.2049828155       10.7416446052       16.8861470268
 Ga        11.9096576913       19.3025326262       17.3346411334
 Ga        11.2844702609        8.7039913396       10.7315421141
 As        12.6115321180       15.3782326312       12.7631435285
 As         9.7836581754       12.3956643264       12.8740220767
 As        15.4001821022       12.7601569024       12.7269611119
 As        15.5838397238       12.6438044888       18.2109563635
 As        15.4101127613       15.2750545907        9.8034590282
 As        15.4382692020       15.4616730870       15.5736161785
 As        18.5715983402       17.8730519022        9.4238651127
 As         9.8988786298       15.3348420623       15.4362515496
 As        18.2031097769       15.6836920550       12.9630106547
 As        15.2649342588       18.1073543339       12.2001362171
 As        12.5588915618       15.2656447154       18.1853307448
 As         9.8961542102       18.4574270644       18.2556538705
 As        12.6968599143        9.8415358196       12.4136335942
 As        12.2728144720       12.7634945543        9.8511848989
 As         9.3686336971        9.6369763281        9.6929845044
 As        12.8373910617       18.2697597436       15.3706305090
 As        18.2163603131       12.5213316429       15.5161178689
 As        12.6520064920       12.4575182465       15.5116737543
 As        15.5466390671        9.7378563932       15.3864687165
 As        18.1259843956        9.3374616072       18.4252638254
 Cl        10.8170092683       11.5552591308        6.6346321264
 Cl        14.3565172567       13.3185786702        6.6293223102
 Cl        17.0236251289       21.1185823600       10.9174469246
 Cl         6.8506467637       17.5640316219       16.3341522857
 Cl        21.4517254616       15.9526476936       11.0517809453
 Cl        18.6549421286       13.8815880247       10.2692837506
 Cl        14.0762267531       18.3670748599       18.4764457118
 Cl         9.2641054111       15.3569501339       11.5443006830
 Cl        10.5969447509       16.1981087441       21.3027990126
 Cl        16.5567329884       18.9032806350       15.1544036045
 Cl         9.9320593729       12.7180686624       18.1260038002
 Cl        15.4168069992       18.7636613716        8.6529984921
 Cl         6.7069852752       12.0710324897       10.8153627021
 Cl        11.3507254213        6.6202950570       11.0425907108
 Cl        14.0856293547        6.5539670397       13.8336900030
 Cl        21.2724594409       10.6217125762       16.5741668699
 Cl        12.5990268945        9.2180678972        8.8294296330
 Cl        16.7166238372       16.2638772348        6.3702780296
 Cl        13.9691693964        9.8579280698       18.5791622508
 Cl        12.2474118892       17.4141645891        9.8844531006
 Cl         6.5577240281       14.4975480522       13.7722143781
 Cl        14.2366651143       21.5136893841       14.0007393363
 Cl         9.5836576496       18.2983241519       14.1425311978
 Cl        15.3141482525       11.4343244238        9.4889522224
 Cl        10.4620449354        9.4879849166       15.2489436217
 Cl        18.0651220362       10.3064223776       12.5697046981
 Cl        18.4197616675        7.5207127573       15.2629060459
 Cl        21.4778975329       14.4294596606       14.6031012287
 Cl        14.1220717519       14.1020096780       21.5147465040
 Cl        12.2694617956       21.3537974422       17.6283945095
 Cl        15.6851231765        6.6029935458       17.4806348927
 Cl        16.0512604706       10.5678066584       21.3800274329
 Cl        18.2906270963       15.3371829664       17.9578886557
